💧🧙💦🌊  <-These symbols help text editors identify file as Unicode UTF8.
                    UTF8 is not necessary to view numerical results, but no UTF8 support can have artifacts where non-ascii symbols are used (such as the degree symbol).


MODFLOW-OWHM v2.2.0

      MMMMMMM                                       MM      MMM     MM
    MMM     MMM    MM      M   MMMMMMMM             LM     DM M     ML     MM     MMMMMMMMM  MMMMMMMM  MMMMMMMM
   MM         MM   MMM     M   MM                    MM    MM M     M     MMMM        M      M         MM     NM
   MM         MM   MM M    M   MM                    MM    M  MM   MM    MM  MM       M      M         MM      M
   MM         MM   MM  M   M   MMMMMMMM               MN  MM   M   MM   MM    MM      M      MMMMMMM   MMMMMMMMM
   MM         MM   MM   M  M   MM         MMMMMMM     MM  M    MM MM    MMMMMMMM      M      M         MM   MM
   MM         MM   MM    M M   MM                     LM MM    NM MM   MM      MM     M      M         MM    MM
    MM       NM    MM     MM   MM                      M M      M M   MN        MM    M      M         MM     MM
     MMMMMMMMN     MM      M   MMMMMMMM                7MM      7MM  MN          MM   M      MMMMMMMM  MM      MM


                        MODFLOW
            ONE-WATER HYDROLOGIC-FLOW MODEL

    U.S. Geological Survey Modular Finite-Difference
           Conjunctive Use Simulation Program

                      Version 2.2

 Release: 0

 Includes the following base versions with enhancements:

          MODFLOW-2005 Version 1.12
          MODFLOW-FMP  Version 4.1
          MODFLOW-SWR  Version 1.04
          MODFLOW-SWI  Version 2.0
          MODFLOW-LGR  Version 2.0
          MODFLOW-NWT  Version 1.2
          MODFLOW-CFP  Version 1.09.57
                  SWO  Version 1.0

------------------------------------------------------------------------------------
USGS Software Disclaimer:                                                          |
                                                                                   |
   No warranty, expressed or implied, is made by the USGS or the U.S. Government   |
   as to the functionality of the software and related material nor shall the      |
   fact of release constitute any such warranty.                                   |
                                                                                   |
   The software is provided on the condition that neither the USGS nor             |
   the U.S. Government shall be held liable for any damages resulting from the     |
   authorized or unauthorized use of the software.                                 |
                                                                                   |
   Newer versions may be present at the official code and download repository:     |
      https://code.usgs.gov/modflow/mf-owhm                                        |
                                                                                   |
------------------------------------------------------------------------------------

∙∙∙∙∙∙∙∙∙∙∙∙∙∙∙∙∙∙∙∙∙∙∙∙∙∙∙∙∙∙∙∙∙∙∙∙∙∙∙∙∙∙∙∙∙∙∙∙∙∙∙∙∙∙∙∙∙∙∙∙∙∙
    OneWater Simulation Initiated at  
∙∙∙∙∙∙∙∙∙∙∙∙∙∙∙∙∙∙∙∙∙∙∙∙∙∙∙∙∙∙∙∙∙∙∙∙∙∙∙∙∙∙∙∙∙∙∙∙∙∙∙∙∙∙∙∙∙∙∙∙∙∙


 LIST FILE: ./output/swi2ex4_2d_sww.list
      UNIT: 2

OPENING DATA FILES [DATA AND DATA(BINARY)]

OPENED DATA FILE ON UNIT     55 WITH FILENAME OF: ./output/swi2ex4_2d_sww.zta
OPENED DATA FILE ON UNIT     56 WITH FILENAME OF: ./output/swi2ex4_2d_sww.swb
OPENED DATA FILE ON UNIT     51 WITH FILENAME OF: ./output/swi2ex4_2d_sww.hds
OPENED DATA FILE ON UNIT     52 WITH FILENAME OF: ./output/swi2ex4_2d_sww.ddn
OPENED DATA FILE ON UNIT     53 WITH FILENAME OF: ./output/swi2ex4_2d_sww.cbc

OPENING PACKAGES

DIS  PACKAGE OPENED.
BAS6 PACKAGE OPENED.
GHB  PACKAGE OPENED.
WEL  PACKAGE OPENED.
LPF  PACKAGE OPENED.
SWI  PACKAGE OPENED.
PCG  PACKAGE OPENED.
OC   PACKAGE OPENED.

NOTIFICATION: A FILE UNIT NUMBER WAS FOUND FOR EITHER THE LIST FILE OR A PACAKGE.
IT WILL BE USED EVEN THOUGH UNIT NUMBERS FOR THE LIST FILE AND PACKAGES ARE NOW OPTIONAL.
[IT IS RECOMMENDED TO STILL USE A UNIT NUMBER FOR DATA and DATA(BINARY) ]


 BAS -- BASIC PACKAGE, VERSION OWHM INPUT READ FROM UNIT    13
 
MODFLOW was compiled using uniform precision (Precision => Number of meaningful digits in numbers)
Precision of REAL and DOUBLE PRECISION variables: 15

 DISCRETIZATION INPUT DATA READ FROM UNIT   11

-- READING DIS PACKAGE INPUT --

# swi2ex4_2d_sww
# MODFLOW-SWI Example problem documented in:
#   Bakker, M., Schaars, F., Hughes, J.D., Langevin, C.D., Dausman, A.M., 2013, Documentation of the seawater intrusion (SWI2) package for MODFLOW: U.S. Geological Survey Techniques and Methods 6-A46, 47 p.
#
#      -Comments are preceded by a # sign
#
#-----------------------------------------------------------------------------------------------------------------------------------------------------
# DIS


*** DIS COORDINATE SYSTEM NOT SEPECIFIED ***
DEFAULT VALUES APPLIED ARE 0° ROTATION
WITH THE ORIGIN (0,0) LOCATED AT THE MODEL'S LOWER LEFT CORNER




DIS COORDINATE SYSTEM SEPECIFIED WITH:
GRID ROTATION OF 0.0°
WITH THE ORIGIN LOCATED AT THE OUTER MOST CORNER OF MODEL CELL [61,1] WITH:
X-COORDINATE:0.0
Y-COORDINATE:0.0
    2 LAYERS        61 ROWS        61 COLUMNS
      3 STRESS PERIOD(S) IN SIMULATION
 MODEL TIME UNIT IS DAYS
 MODEL LENGTH UNIT IS METERS
  Confining bed flag for each layer:
   0   0

                     DELR =   50.0000    

                     DELC =   50.0000    

 TOP ELEVATION OF LAYER 1 =  -10.0000    

   MODEL LAYER BOTTOM EL. =  -30.0000     FOR LAYER   1

   MODEL LAYER BOTTOM EL. =  -50.0000     FOR LAYER   2


 STRESS PERIOD     LENGTH       TIME STEPS     MULTIPLIER FOR DELT    SS FLAG  (OPTIONAL TIME STEP LENGTH)
 ---------------------------------------------------------------------------------------------------
        1         73000.00       1000                  1.00000         SS
        2         4380.000        120                  1.00000         SS
        3         6570.000        180                  1.00000         SS

 STEADY-STATE SIMULATION




-- READING BAS PACKAGE INPUT --

# swi2ex4_2d_sww
# MODFLOW-SWI Example problem documented in:
#   Bakker, M., Schaars, F., Hughes, J.D., Langevin, C.D., Dausman, A.M., 2013, Documentation of the seawater intrusion (SWI2) package for MODFLOW: U.S. Geological Survey Techniques and Methods 6-A46, 47 p.
#
# Input modified for MODFLOW-OWHM by adding a BAS OPTIONS BLOCK with output options.
#
#-----------------------------------------------------------------------------------------------------------------------------------------------------

# Basic package


 THE BAS PACKAGE NOW DEFAULTS TO FREE FORMAT.
 USE OPTION "NOFREE" TO DISABLE FREE FORMAT.

 NOW READING BAS OPTIONS

 Found Option: NOCBC
                 No Cell-By-Cell (CBC) flows are written for simulation.

 Found Option: BUDGETDB

 Found Option: PRINT_HEAD
                 NPER       ./output/swi2ex4_2d_sww_Head.txt

 Found Option: CUMULATIVE_HEAD_CHANGE
                 Cumulative sum of absolute head differences for the entire model.
                 This is a diagnostic feature meant for comparing MF-OWHM code versions with the same model input (software unit test).


 Setting up PRINT_HEAD option for 
    SP    TS   FILE
     3   180   ./output/swi2ex4_2d_sww_Head.txt

 The total simulation limit for the number PARAMETERs defined is: 
     Max number of PARAMETERs (MXPAR)  is       2000
     Max number of INSTANCEs  (MXINST) is      50000
     Max number of CLUSTERs   (MXCLST) is    2000000


           BOUNDARY ARRAY =              1 FOR LAYER   1

           BOUNDARY ARRAY =              1 FOR LAYER   2

 AQUIFER HEAD WILL BE SET TO -999.99 AT ALL NO-FLOW NODES (IBOUND=0).




                       INITIAL HEAD FOR LAYER   1
 READING ON UNIT   13 WITH FORMAT: (61G15.6)           



                       INITIAL HEAD FOR LAYER   2
 READING ON UNIT   13 WITH FORMAT: (61G15.6)           

-- READING OC PACKAGE INPUT --

# swi2ex4_2d_sww
# MODFLOW-SWI Example problem documented in:
#   Bakker, M., Schaars, F., Hughes, J.D., Langevin, C.D., Dausman, A.M., 2013, Documentation of the seawater intrusion (SWI2) package for MODFLOW: U.S. Geological Survey Techniques and Methods 6-A46, 47 p.
#
#-----------------------------------------------------------------------------------------------------------------------------------------------------
# OC


 OUTPUT CONTROL IS SPECIFIED ONLY AT TIME STEPS FOR WHICH OUTPUT IS DESIRED
 HEAD PRINT FORMAT CODE IS   0    DRAWDOWN PRINT FORMAT CODE IS   0
 HEADS WILL BE SAVED ON UNIT   51    DRAWDOWNS WILL BE SAVED ON UNIT   52  WATER BUDGETs WILL BE SAVED ON UNIT 

 LPF -- LAYER-PROPERTY FLOW PACKAGE, VERSION OWHM
         INPUT READ FROM UNIT   15

-- READING LPF PACKAGE INPUT --

# swi2ex4_2d_sww
# MODFLOW-SWI Example problem documented in:
#   Bakker, M., Schaars, F., Hughes, J.D., Langevin, C.D., Dausman, A.M., 2013, Documentation of the seawater intrusion (SWI2) package for MODFLOW: U.S. Geological Survey Techniques and Methods 6-A46, 47 p.
#
#      -Comments are preceded by a # sign
#
#-----------------------------------------------------------------------------------------------------------------------------------------------------
# LPF

 HEAD AT CELLS THAT CONVERT TO DRY= -1.00000E+30
 No named parameters

   LAYER FLAGS:
 LAYER       LAYTYP        LAYAVG         CHANI        LAYVKA        LAYWET
 ---------------------------------------------------------------------------
    1             0             0     1.000E+00             0             0
    2             0             0     1.000E+00             0             0

   INTERPRETATION OF LAYER FLAGS:
                        INTERBLOCK     HORIZONTAL    DATA IN
         LAYER TYPE   TRANSMISSIVITY   ANISOTROPY   ARRAY VKA   WETTABILITY
 LAYER      (LAYTYP)      (LAYAVG)       (CHANI)      (LAYVKA)      (LAYWET)
 ---------------------------------------------------------------------------
    1      CONFINED      HARMONIC     1.000E+00    VERTICAL K  NON-WETTABLE
    2      CONFINED      HARMONIC     1.000E+00    VERTICAL K  NON-WETTABLE

 WETTING CAPABILITY IS NOT ACTIVE IN ANY LAYER

    HYD. COND. ALONG ROWS =   10.0000     FOR LAYER   1

      VERTICAL HYD. COND. =  0.200000     FOR LAYER   1

    HYD. COND. ALONG ROWS =   10.0000     FOR LAYER   2

      VERTICAL HYD. COND. =  0.200000     FOR LAYER   2

-- READING WEL PACKAGE INPUT --

# swi2ex4_2d_sww
# MODFLOW-SWI Example problem documented in:
#   Bakker, M., Schaars, F., Hughes, J.D., Langevin, C.D., Dausman, A.M., 2013, Documentation of the seawater intrusion (SWI2) package for MODFLOW: U.S. Geological Survey Techniques and Methods 6-A46, 47 p.
#
#-----------------------------------------------------------------------------------------------------------------------------------------------------
# WEL


WEL -- WELL PACKAGE, VERSION OWHM INPUT READ FROM UNIT 20

 No named parameters

 NO TABFILE SPECIFIED FOR PACKAGE WEL  


 NO LINEFEEDS ARE SPECIFIED FOR PACKAGE WEL  


MAXIMUM OF 1683 ACTIVE WELLS AT ONE TIME


0 Well parameters

 GHB -- GENERAL-HEAD BOUNDARY PACKAGE, VERSION OWHM
         INPUT READ FROM UNIT   23

-- READING GHB PACKAGE INPUT --

# swi2ex4_2d_sww
# MODFLOW-SWI Example problem documented in:
#   Bakker, M., Schaars, F., Hughes, J.D., Langevin, C.D., Dausman, A.M., 2013, Documentation of the seawater intrusion (SWI2) package for MODFLOW: U.S. Geological Survey Techniques and Methods 6-A46, 47 p.
#
#-----------------------------------------------------------------------------------------------------------------------------------------------------
# GHB

 No named parameters

 NO TABFILE SPECIFIED FOR PACKAGE GHB  


 NO LINEFEEDS ARE SPECIFIED FOR PACKAGE GHB  

 MAXIMUM OF   2040 ACTIVE GHB CELLS AT ONE TIME


     0 GHB parameters

 PCG -- CONJUGATE-GRADIENT SOLUTION PACKAGE, VERSION OWHM

-- READING PCG PACKAGE INPUT --

# swi2ex4_2d_sww
# MODFLOW-SWI Example problem documented in:
#   Bakker, M., Schaars, F., Hughes, J.D., Langevin, C.D., Dausman, A.M., 2013, Documentation of the seawater intrusion (SWI2) package for MODFLOW: U.S. Geological Survey Techniques and Methods 6-A46, 47 p.
#
#-----------------------------------------------------------------------------------------------------------------------------------------------------
# PCG

 MAXIMUM OF    100 CALLS OF SOLUTION ROUTINE
 MAXIMUM OF     50 INTERNAL ITERATIONS PER CALL TO SOLUTION ROUTINE
 MATRIX PRECONDITIONING TYPE :    1



                                    SOLUTION BY THE CONJUGATE-GRADIENT METHOD
                                   -------------------------------------------
                    MAXIMUM NUMBER OF CALLS TO PCG ROUTINE =      100
                        MAXIMUM ITERATIONS PER CALL TO PCG =       50
                               MATRIX PRECONDITIONING TYPE =        1
        RELAXATION FACTOR (ONLY USED WITH PRECOND. TYPE 1) =    0.10000E+01
 PARAMETER OF POLYNOMIAL PRECOND. = 2 (2) OR IS CALCULATED :        0
                         HEAD CHANGE CRITERION FOR CLOSURE =    0.10000E-05
                     RESIDUAL CHANGE CRITERION FOR CLOSURE =    0.30000E-02
            PCG HEAD AND RESIDUAL CHANGE PRINTOUT INTERVAL =      999
     PRINTING FROM SOLVER IS LIMITED(1) OR SUPPRESSED (>1) =        3
                            STEADY-STATE DAMPING PARAMETER =    0.10000E+01
                               TRANSIENT DAMPING PARAMETER =    0.10000E+01

-- READING SWI PACKAGE INPUT --

# swi2ex4_2d_sww
# MODFLOW-SWI Example problem documented in:
#   Bakker, M., Schaars, F., Hughes, J.D., Langevin, C.D., Dausman, A.M., 2013, Documentation of the seawater intrusion (SWI2) package for MODFLOW: U.S. Geological Survey Techniques and Methods 6-A46, 47 p.
#
#      -Comments are preceded by a # sign
#
#-----------------------------------------------------------------------------------------------------------------------------------------------------

# Salt Water Intrusion (SWI2) package
#--Dataset 1



 SWI2 -- SWI PACKAGE, VERSION OWHM
 --------------------------------------------------
 SWI2 INPUT READ FROM UNIT 29




 SWI2 DATASET 1
 ----------------------------------------------------
 NUMBER OF SURFACES (NSRF):                         1
 TOTAL NUMBER OF ZONES:                             2
 DENSITY DISTRIBUTION OPTION (ISTRAT):              1
   VARIABLE DENSITY FLOW -- ISTRAT = 0
   STRATIFIED FLOW       -- ISTRAT = 1
 NUMBER OF SWI OBSERVATIONS (NOBS):                 0
 ZETA OUTPUT FILE UNIT NUMBER (ISWIZT):            55
 BUDGET OUTPUT FILE UNIT NUMBER (ISWICB):           0
 OBSERVATION OUTPUT FILE UNIT NUMBER (ISWIOBS):     0
 ----------------------------------------------------


 SWI2 DATASET 2A
 ----------------------------------------------------
 SOLVER (NSOLVER):                                  1
   SOLVER =                      DIRECT SOLVER (DE4)
 SOLVER PRINTOUT INTERVAL (IPRSOL):               999
 SOLVER OUTPUT FLAG (MUTSOL):                       3
   0 = PRINTING EVERY ITERATION
   1 = LIMITED (TOTAL NUMBER OF ITERATIONS)
   2 = NO PRINTING
   3 = ONLY IF CONVERGENCE FAILS
 ----------------------------------------------------


 SWI2 DATASET 3A
 ----------------------------------------------------
 MAXIMUM TOE SURFACE SLOPE (TOESLOPE):      0.500E-02
 MAXIMUM TIP SURFACE SLOPE (TIPSLOPE):      0.500E-02
 EXCESS SURFACE SLOPE FRACTION (ALPHA):     0.100    
 MINIMUM ZONE THICKNESS FRACTION (BETA):    0.100    
 ----------------------------------------------------



                             NUZONE
 READING ON UNIT   29 WITH FORMAT: (2G15.6)            



                   ZETA SURFACE  1  FOR LAYER   1
 READING ON UNIT   29 WITH FORMAT: (61G15.6)           



                   ZETA SURFACE  1  FOR LAYER   2
 READING ON UNIT   29 WITH FORMAT: (61G15.6)           

                      SSZ =  0.200000     FOR LAYER   1

                      SSZ =  0.200000     FOR LAYER   2



                            IZONENR FOR LAYER   1
 READING ON UNIT   29 WITH FORMAT: (61I10)             



                            IZONENR FOR LAYER   2
 READING ON UNIT   29 WITH FORMAT: (61I10)             


########################################################################################################

                           WARNING_MESSAGE

         THE FOLLOWING COMMENTS WERE PASSED TO THE WARNING ROUTINE

THE DESCRIPTION OF THE WARNING IS:

DIS PACKAGE: THE GROUND SURFACE ELEVATION WAS NOT SPECIFIED WITH THE KEYWORD "SURFACE_ELEVATION"

BEFORE LOADING THE "TOP" ARRAY FOR LAYER 1
NOR WAS IT DEFINED WITH ANOTHER PACKAGE   (e.g. FMPs GLOBAL DIMENSION KEYWORD "SURFACE_ELEVATION")

OneWater WILL SET THE GROUND SURFACE ELEVATION (GSE)
TO THE TOP ELEVATION OF THE UPPER MOST ACTIVE CELL OR THE DIS TOP OF LAY1.

NOTE THAT SFR DOES USE GSE FOR ALL DIVERSION SEGMENTS
   WHEN "IRDFLG" IS SET TO 2 or -2.

########################################################################################################



1
                            STRESS PERIOD NO.      1, LENGTH =   73000.00    
                            -----------------------------------------------

                              NUMBER OF TIME STEPS =  1000

                               MULTIPLIER FOR DELT =     1.000

                            INITIAL TIME STEP SIZE =   73.00000    

PARAMETERS HAVE BEEN USED IN PACKAGES

THE CURRENT STORAGE FOR PARAMETERS IS: 
No. PARAMETER=         0 WITH MAX STORAGE (MXPAR)  OF      2000
No. CLUSTERS =         0 WITH MAX STORAGE (MXCLST) OF   2000000
No. INSTANCES=         0 WITH MAX STORAGE (MXINST) OF     50000

YOU CAN INCREASE/DECREASE STORAGE WITH BAS OPTION:
MAXPARAM  MXPAR  MXCLST MXINST

FYI, YOU CAN REDUCE RAM USUAGE WITH BAS OPTION
(NOTE THE THREE NUMBERS ARE A MINUMUM SIZE):
   MAXPARAM          1         1         1

   2040 GHB CELLS
 
 SOLVING FOR HEAD 


Solver Convergence Information:
                              HClose:  2.4883705E-7
                              RClose:  4.6164428E-5
                           L2-RClose:  5.7118119E-4
                         Rel-Vol-Err:  0.0
 

 OUTPUT CONTROL FOR STRESS PERIOD      1   TIME STEP     1
    PRINT BUDGET
    SAVE HEAD FOR ALL LAYERS
 SOLVING FOR ZETA FOR LAYER     1 ZONE     2

     841 UPPER PART EQS.       840 LOWER PART EQS.    BAND WIDTH + 1 =     42
 STRESS PERIOD=   1 TIMESTEP=    1 LAYER=   1 ZONE=   2 ACTIVE CELLS= 1681 NUMBER OF EQUATIONS=    1681
 UBUDSV SAVING "      ZETASRF  1" ON UNIT 55 AT TIME STEP 1, STRESS PERIOD 1


                      VOLUMETRIC SWI ZONE BUDGET FOR ENTIRE MODEL
                     AT END OF TIME STEP    1 IN STRESS PERIOD   1
                                      ZONE     1
  -----------------------------------------------------------------------------------

        CUMULATIVE VOLUMES      L**3       RATES FOR THIS TIME STEP      L**3/T
        ------------------                 ------------------------

              IN:                                      IN:
              ---                                      ---
             BOUNDARIES =      122713.0000            BOUNDARIES =        1681.0000
          CONSTANT HEAD =           0.0000         CONSTANT HEAD =           0.0000
            ZONE CHANGE =           0.0000           ZONE CHANGE =           0.0000
       ZONE CHG TIP/TOE =        1025.0000      ZONE CHG TIP/TOE =          14.0411
            ZONE MIXING =           0.0000           ZONE MIXING =           0.0000

               TOTAL IN =      123738.0000              TOTAL IN =        1695.0411

             OUT:                                     OUT:
             ----                                     ----
             BOUNDARIES =           0.0000            BOUNDARIES =           0.0000
          CONSTANT HEAD =           0.0000         CONSTANT HEAD =           0.0000
            ZONE CHANGE =      122713.0503           ZONE CHANGE =        1681.0007
       ZONE CHG TIP/TOE =        1025.0000      ZONE CHG TIP/TOE =          14.0411
            ZONE MIXING =           0.0000           ZONE MIXING =           0.0000

              TOTAL OUT =      123738.0503             TOTAL OUT =        1695.0418

               IN - OUT =      -5.0278E-02              IN - OUT =      -6.8874E-04

    PERCENT DISCREPANCY =          -0.00     PERCENT DISCREPANCY =          -0.00



                      VOLUMETRIC SWI ZONE BUDGET FOR ENTIRE MODEL
                     AT END OF TIME STEP    1 IN STRESS PERIOD   1
                                      ZONE     2
  -----------------------------------------------------------------------------------

        CUMULATIVE VOLUMES      L**3       RATES FOR THIS TIME STEP      L**3/T
        ------------------                 ------------------------

              IN:                                      IN:
              ---                                      ---
             BOUNDARIES =           0.0000            BOUNDARIES =           0.0000
          CONSTANT HEAD =           0.0000         CONSTANT HEAD =           0.0000
            ZONE CHANGE =      122713.0503           ZONE CHANGE =        1681.0007
       ZONE CHG TIP/TOE =        1025.0000      ZONE CHG TIP/TOE =          14.0411
            ZONE MIXING =           0.0000           ZONE MIXING =           0.0000

               TOTAL IN =      123738.0503              TOTAL IN =        1695.0418

             OUT:                                     OUT:
             ----                                     ----
             BOUNDARIES =      122712.9375            BOUNDARIES =        1680.9991
          CONSTANT HEAD =           0.0000         CONSTANT HEAD =           0.0000
            ZONE CHANGE =           0.0000           ZONE CHANGE =           0.0000
       ZONE CHG TIP/TOE =        1025.0000      ZONE CHG TIP/TOE =          14.0411
            ZONE MIXING =           0.0000           ZONE MIXING =           0.0000

              TOTAL OUT =      123737.9375             TOTAL OUT =        1695.0402

               IN - OUT =           0.1128              IN - OUT =       1.5455E-03

    PERCENT DISCREPANCY =           0.00     PERCENT DISCREPANCY =           0.00


 HEAD WILL BE SAVED ON UNIT   51 AT END OF TIME STEP     1 IN STRESS PERIOD      1



  -------------------------------------------------------------------------------------
  VOLUMETRIC BUDGET FOR ENTIRE MODEL AT END OF TIME STEP    1 IN STRESS PERIOD      1
  -------------------------------------------------------------------------------------

     CUMULATIVE VOLUMES      L**3       RATES FOR THIS TIME STEP      L**3/T
     ------------------                 ------------------------

           IN:                                      IN:
           ---                                      ---
             STORAGE =           0.0000               STORAGE =           0.0000
       CONSTANT HEAD =           0.0000         CONSTANT HEAD =           0.0000
               WELLS =      122713.0000                 WELLS =        1681.0000
     HEAD DEP BOUNDS =           0.0000       HEAD DEP BOUNDS =           0.0000
          SWIADDTOCH =           0.0000            SWIADDTOCH =           0.0000

            TOTAL IN =      122713.0000              TOTAL IN =        1681.0000

          OUT:                                     OUT:
          ----                                     ----
             STORAGE =           0.0000               STORAGE =           0.0000
       CONSTANT HEAD =           0.0000         CONSTANT HEAD =           0.0000
               WELLS =           0.0000                 WELLS =           0.0000
     HEAD DEP BOUNDS =      122712.9375       HEAD DEP BOUNDS =        1680.9991
          SWIADDTOCH =           0.0000            SWIADDTOCH =           0.0000

           TOTAL OUT =      122712.9375             TOTAL OUT =        1680.9991

            IN - OUT =       6.2544E-02              IN - OUT =       8.5676E-04

 PERCENT DISCREPANCY =           0.00     PERCENT DISCREPANCY =           0.00


          TIME SUMMARY AT END OF TIME STEP     1 IN STRESS PERIOD      1
                    SECONDS     MINUTES      HOURS       DAYS        YEARS
                    -----------------------------------------------------------
   TIME STEP LENGTH 6.30720E+06 1.05120E+05  1752.0      73.000     0.19986    
 STRESS PERIOD TIME 6.30720E+06 1.05120E+05  1752.0      73.000     0.19986    
         TOTAL TIME 6.30720E+06 1.05120E+05  1752.0      73.000     0.19986    
 
 
 SOLVING FOR HEAD 


Solver Convergence Information:
                              HClose:  5.7274391E-7
                              RClose:  2.0119796E-4
                           L2-RClose:  0.0011127
                         Rel-Vol-Err:  0.0
 

 OUTPUT CONTROL FOR STRESS PERIOD      1   TIME STEP     2
    PRINT BUDGET
    SAVE HEAD FOR ALL LAYERS
 SOLVING FOR ZETA FOR LAYER     1 ZONE     2

     921 UPPER PART EQS.       924 LOWER PART EQS.    BAND WIDTH + 1 =     44
 STRESS PERIOD=   1 TIMESTEP=    2 LAYER=   1 ZONE=   2 ACTIVE CELLS= 1845 NUMBER OF EQUATIONS=    1845
 UBUDSV SAVING "      ZETASRF  1" ON UNIT 55 AT TIME STEP 2, STRESS PERIOD 1


                      VOLUMETRIC SWI ZONE BUDGET FOR ENTIRE MODEL
                     AT END OF TIME STEP    2 IN STRESS PERIOD   1
                                      ZONE     1
  -----------------------------------------------------------------------------------

        CUMULATIVE VOLUMES      L**3       RATES FOR THIS TIME STEP      L**3/T
        ------------------                 ------------------------

              IN:                                      IN:
              ---                                      ---
             BOUNDARIES =      245426.0000            BOUNDARIES =        1681.0000
          CONSTANT HEAD =           0.0000         CONSTANT HEAD =           0.0000
            ZONE CHANGE =        1179.0386           ZONE CHANGE =          16.1512
       ZONE CHG TIP/TOE =        1025.0000      ZONE CHG TIP/TOE =           0.0000
            ZONE MIXING =           0.0000           ZONE MIXING =           0.0000

               TOTAL IN =      247630.0386              TOTAL IN =        1697.1512

             OUT:                                     OUT:
             ----                                     ----
             BOUNDARIES =       38982.8444            BOUNDARIES =         534.0116
          CONSTANT HEAD =           0.0000         CONSTANT HEAD =           0.0000
            ZONE CHANGE =      226507.6620           ZONE CHANGE =        1421.8440
       ZONE CHG TIP/TOE =        1025.0000      ZONE CHG TIP/TOE =           0.0000
            ZONE MIXING =           0.0000           ZONE MIXING =           0.0000

              TOTAL OUT =      266515.5064             TOTAL OUT =        1955.8556

               IN - OUT =      -18885.4678              IN - OUT =        -258.7043

    PERCENT DISCREPANCY =          -7.35     PERCENT DISCREPANCY =         -14.16



                      VOLUMETRIC SWI ZONE BUDGET FOR ENTIRE MODEL
                     AT END OF TIME STEP    2 IN STRESS PERIOD   1
                                      ZONE     2
  -----------------------------------------------------------------------------------

        CUMULATIVE VOLUMES      L**3       RATES FOR THIS TIME STEP      L**3/T
        ------------------                 ------------------------

              IN:                                      IN:
              ---                                      ---
             BOUNDARIES =           0.0000            BOUNDARIES =           0.0000
          CONSTANT HEAD =           0.0000         CONSTANT HEAD =           0.0000
            ZONE CHANGE =      226507.6620           ZONE CHANGE =        1421.8440
       ZONE CHG TIP/TOE =       19910.5284      ZONE CHG TIP/TOE =         258.7059
            ZONE MIXING =           0.0000           ZONE MIXING =           0.0000

               TOTAL IN =      246418.1904              TOTAL IN =        1680.5499

             OUT:                                     OUT:
             ----                                     ----
             BOUNDARIES =      206443.0930            BOUNDARIES =        1146.9884
          CONSTANT HEAD =           0.0000         CONSTANT HEAD =           0.0000
            ZONE CHANGE =       20064.5670           ZONE CHANGE =         274.8571
       ZONE CHG TIP/TOE =        1025.0000      ZONE CHG TIP/TOE =           0.0000
            ZONE MIXING =           0.0000           ZONE MIXING =           0.0000

              TOTAL OUT =      227532.6601             TOTAL OUT =        1421.8455

               IN - OUT =       18885.5304              IN - OUT =         258.7044

    PERCENT DISCREPANCY =           7.97     PERCENT DISCREPANCY =          16.68


 HEAD WILL BE SAVED ON UNIT   51 AT END OF TIME STEP     2 IN STRESS PERIOD      1



  -------------------------------------------------------------------------------------
  VOLUMETRIC BUDGET FOR ENTIRE MODEL AT END OF TIME STEP    2 IN STRESS PERIOD      1
  -------------------------------------------------------------------------------------

     CUMULATIVE VOLUMES      L**3       RATES FOR THIS TIME STEP      L**3/T
     ------------------                 ------------------------

           IN:                                      IN:
           ---                                      ---
             STORAGE =           0.0000               STORAGE =           0.0000
       CONSTANT HEAD =           0.0000         CONSTANT HEAD =           0.0000
               WELLS =      245426.0000                 WELLS =        1681.0000
     HEAD DEP BOUNDS =           0.0000       HEAD DEP BOUNDS =           0.0000
          SWIADDTOCH =           0.0000            SWIADDTOCH =           0.0000

            TOTAL IN =      245426.0000              TOTAL IN =        1681.0000

          OUT:                                     OUT:
          ----                                     ----
             STORAGE =           0.0000               STORAGE =           0.0000
       CONSTANT HEAD =           0.0000         CONSTANT HEAD =           0.0000
               WELLS =           0.0000                 WELLS =           0.0000
     HEAD DEP BOUNDS =      245425.9374       HEAD DEP BOUNDS =        1681.0000
          SWIADDTOCH =           0.0000            SWIADDTOCH =           0.0000

           TOTAL OUT =      245425.9374             TOTAL OUT =        1681.0000

            IN - OUT =       6.2615E-02              IN - OUT =       9.8362E-07

 PERCENT DISCREPANCY =           0.00     PERCENT DISCREPANCY =           0.00


          TIME SUMMARY AT END OF TIME STEP     2 IN STRESS PERIOD      1
                    SECONDS     MINUTES      HOURS       DAYS        YEARS
                    -----------------------------------------------------------
   TIME STEP LENGTH 6.30720E+06 1.05120E+05  1752.0      73.000     0.19986    
 STRESS PERIOD TIME 1.26144E+07 2.10240E+05  3504.0      146.00     0.39973    
         TOTAL TIME 1.26144E+07 2.10240E+05  3504.0      146.00     0.39973    
 
 
 SOLVING FOR HEAD 


Solver Convergence Information:
                              HClose:  6.6003467E-7
                              RClose:  1.2869380E-4
                           L2-RClose:  9.1354765E-4
                         Rel-Vol-Err:  0.0
 

 OUTPUT CONTROL FOR STRESS PERIOD      1   TIME STEP     3
    PRINT BUDGET
    SAVE HEAD FOR ALL LAYERS
 SOLVING FOR ZETA FOR LAYER     1 ZONE     2

     841 UPPER PART EQS.       840 LOWER PART EQS.    BAND WIDTH + 1 =     42
 STRESS PERIOD=   1 TIMESTEP=    3 LAYER=   1 ZONE=   2 ACTIVE CELLS= 1681 NUMBER OF EQUATIONS=    1681
 UBUDSV SAVING "      ZETASRF  1" ON UNIT 55 AT TIME STEP 3, STRESS PERIOD 1


                      VOLUMETRIC SWI ZONE BUDGET FOR ENTIRE MODEL
                     AT END OF TIME STEP    3 IN STRESS PERIOD   1
                                      ZONE     1
  -----------------------------------------------------------------------------------

        CUMULATIVE VOLUMES      L**3       RATES FOR THIS TIME STEP      L**3/T
        ------------------                 ------------------------

              IN:                                      IN:
              ---                                      ---
             BOUNDARIES =      368139.0000            BOUNDARIES =        1681.0000
          CONSTANT HEAD =           0.0000         CONSTANT HEAD =           0.0000
            ZONE CHANGE =        1179.0386           ZONE CHANGE =           0.0000
       ZONE CHG TIP/TOE =        2050.0000      ZONE CHG TIP/TOE =          14.0411
            ZONE MIXING =           0.0000           ZONE MIXING =           0.0000

               TOTAL IN =      371368.0386              TOTAL IN =        1695.0411

             OUT:                                     OUT:
             ----                                     ----
             BOUNDARIES =       38982.8444            BOUNDARIES =           0.0000
          CONSTANT HEAD =           0.0000         CONSTANT HEAD =           0.0000
            ZONE CHANGE =      349220.6757           ZONE CHANGE =        1681.0002
       ZONE CHG TIP/TOE =        2050.0000      ZONE CHG TIP/TOE =          14.0411
            ZONE MIXING =           0.0000           ZONE MIXING =           0.0000

              TOTAL OUT =      390253.5200             TOTAL OUT =        1695.0413

               IN - OUT =      -18885.4815              IN - OUT =      -1.8760E-04

    PERCENT DISCREPANCY =          -4.96     PERCENT DISCREPANCY =          -0.00



                      VOLUMETRIC SWI ZONE BUDGET FOR ENTIRE MODEL
                     AT END OF TIME STEP    3 IN STRESS PERIOD   1
                                      ZONE     2
  -----------------------------------------------------------------------------------

        CUMULATIVE VOLUMES      L**3       RATES FOR THIS TIME STEP      L**3/T
        ------------------                 ------------------------

              IN:                                      IN:
              ---                                      ---
             BOUNDARIES =           0.0000            BOUNDARIES =           0.0000
          CONSTANT HEAD =           0.0000         CONSTANT HEAD =           0.0000
            ZONE CHANGE =      349220.6757           ZONE CHANGE =        1681.0002
       ZONE CHG TIP/TOE =       20935.5284      ZONE CHG TIP/TOE =          14.0411
            ZONE MIXING =           0.0000           ZONE MIXING =           0.0000

               TOTAL IN =      370156.2041              TOTAL IN =        1695.0413

             OUT:                                     OUT:
             ----                                     ----
             BOUNDARIES =      329156.0930            BOUNDARIES =        1681.0000
          CONSTANT HEAD =           0.0000         CONSTANT HEAD =           0.0000
            ZONE CHANGE =       20064.5670           ZONE CHANGE =           0.0000
       ZONE CHG TIP/TOE =        2050.0000      ZONE CHG TIP/TOE =          14.0411
            ZONE MIXING =           0.0000           ZONE MIXING =           0.0000

              TOTAL OUT =      351270.6601             TOTAL OUT =        1695.0411

               IN - OUT =       18885.5441              IN - OUT =       1.8760E-04

    PERCENT DISCREPANCY =           5.24     PERCENT DISCREPANCY =           0.00


 HEAD WILL BE SAVED ON UNIT   51 AT END OF TIME STEP     3 IN STRESS PERIOD      1



  -------------------------------------------------------------------------------------
  VOLUMETRIC BUDGET FOR ENTIRE MODEL AT END OF TIME STEP    3 IN STRESS PERIOD      1
  -------------------------------------------------------------------------------------

     CUMULATIVE VOLUMES      L**3       RATES FOR THIS TIME STEP      L**3/T
     ------------------                 ------------------------

           IN:                                      IN:
           ---                                      ---
             STORAGE =           0.0000               STORAGE =           0.0000
       CONSTANT HEAD =           0.0000         CONSTANT HEAD =           0.0000
               WELLS =      368139.0000                 WELLS =        1681.0000
     HEAD DEP BOUNDS =           0.0000       HEAD DEP BOUNDS =           0.0000
          SWIADDTOCH =           0.0000            SWIADDTOCH =           0.0000

            TOTAL IN =      368139.0000              TOTAL IN =        1681.0000

          OUT:                                     OUT:
          ----                                     ----
             STORAGE =           0.0000               STORAGE =           0.0000
       CONSTANT HEAD =           0.0000         CONSTANT HEAD =           0.0000
               WELLS =           0.0000                 WELLS =           0.0000
     HEAD DEP BOUNDS =      368138.9374       HEAD DEP BOUNDS =        1681.0000
          SWIADDTOCH =           0.0000            SWIADDTOCH =           0.0000

           TOTAL OUT =      368138.9374             TOTAL OUT =        1681.0000

            IN - OUT =       6.2616E-02              IN - OUT =       7.8558E-10

 PERCENT DISCREPANCY =           0.00     PERCENT DISCREPANCY =           0.00


          TIME SUMMARY AT END OF TIME STEP     3 IN STRESS PERIOD      1
                    SECONDS     MINUTES      HOURS       DAYS        YEARS
                    -----------------------------------------------------------
   TIME STEP LENGTH 6.30720E+06 1.05120E+05  1752.0      73.000     0.19986    
 STRESS PERIOD TIME 1.89216E+07 3.15360E+05  5256.0      219.00     0.59959    
         TOTAL TIME 1.89216E+07 3.15360E+05  5256.0      219.00     0.59959    
 
 
 SOLVING FOR HEAD 


Solver Convergence Information:
                              HClose:  4.3314716E-7
                              RClose:  1.6237004E-4
                           L2-RClose:  8.9715479E-4
                         Rel-Vol-Err:  0.0
 

 OUTPUT CONTROL FOR STRESS PERIOD      1   TIME STEP     4
    PRINT BUDGET
    SAVE HEAD FOR ALL LAYERS
 SOLVING FOR ZETA FOR LAYER     1 ZONE     2

     921 UPPER PART EQS.       924 LOWER PART EQS.    BAND WIDTH + 1 =     44
 STRESS PERIOD=   1 TIMESTEP=    4 LAYER=   1 ZONE=   2 ACTIVE CELLS= 1845 NUMBER OF EQUATIONS=    1845
 UBUDSV SAVING "      ZETASRF  1" ON UNIT 55 AT TIME STEP 4, STRESS PERIOD 1


                      VOLUMETRIC SWI ZONE BUDGET FOR ENTIRE MODEL
                     AT END OF TIME STEP    4 IN STRESS PERIOD   1
                                      ZONE     1
  -----------------------------------------------------------------------------------

        CUMULATIVE VOLUMES      L**3       RATES FOR THIS TIME STEP      L**3/T
        ------------------                 ------------------------

              IN:                                      IN:
              ---                                      ---
             BOUNDARIES =      490852.0000            BOUNDARIES =        1681.0000
          CONSTANT HEAD =           0.0000         CONSTANT HEAD =           0.0000
            ZONE CHANGE =        2275.2367           ZONE CHANGE =          15.0164
       ZONE CHG TIP/TOE =        2050.0000      ZONE CHG TIP/TOE =           0.0000
            ZONE MIXING =           0.0000           ZONE MIXING =           0.0000

               TOTAL IN =      495177.2367              TOTAL IN =        1696.0164

             OUT:                                     OUT:
             ----                                     ----
             BOUNDARIES =       77986.1928            BOUNDARIES =         534.2924
          CONSTANT HEAD =           0.0000         CONSTANT HEAD =           0.0000
            ZONE CHANGE =      452317.7654           ZONE CHANGE =        1412.2889
       ZONE CHG TIP/TOE =        2050.0000      ZONE CHG TIP/TOE =           0.0000
            ZONE MIXING =           0.0000           ZONE MIXING =           0.0000

              TOTAL OUT =      532353.9582             TOTAL OUT =        1946.5813

               IN - OUT =      -37176.7214              IN - OUT =        -250.5649

    PERCENT DISCREPANCY =          -7.24     PERCENT DISCREPANCY =         -13.76



                      VOLUMETRIC SWI ZONE BUDGET FOR ENTIRE MODEL
                     AT END OF TIME STEP    4 IN STRESS PERIOD   1
                                      ZONE     2
  -----------------------------------------------------------------------------------

        CUMULATIVE VOLUMES      L**3       RATES FOR THIS TIME STEP      L**3/T
        ------------------                 ------------------------

              IN:                                      IN:
              ---                                      ---
             BOUNDARIES =           0.0000            BOUNDARIES =           0.0000
          CONSTANT HEAD =           0.0000         CONSTANT HEAD =           0.0000
            ZONE CHANGE =      452317.7654           ZONE CHANGE =        1412.2889
       ZONE CHG TIP/TOE =       39226.8515      ZONE CHG TIP/TOE =         250.5661
            ZONE MIXING =           0.0000           ZONE MIXING =           0.0000

               TOTAL IN =      491544.6169              TOTAL IN =        1662.8550

             OUT:                                     OUT:
             ----                                     ----
             BOUNDARIES =      412865.7446            BOUNDARIES =        1146.7076
          CONSTANT HEAD =           0.0000         CONSTANT HEAD =           0.0000
            ZONE CHANGE =       39452.0882           ZONE CHANGE =         265.5825
       ZONE CHG TIP/TOE =        2050.0000      ZONE CHG TIP/TOE =           0.0000
            ZONE MIXING =           0.0000           ZONE MIXING =           0.0000

              TOTAL OUT =      454367.8328             TOTAL OUT =        1412.2900

               IN - OUT =       37176.7840              IN - OUT =         250.5649

    PERCENT DISCREPANCY =           7.86     PERCENT DISCREPANCY =          16.30


 HEAD WILL BE SAVED ON UNIT   51 AT END OF TIME STEP     4 IN STRESS PERIOD      1



  -------------------------------------------------------------------------------------
  VOLUMETRIC BUDGET FOR ENTIRE MODEL AT END OF TIME STEP    4 IN STRESS PERIOD      1
  -------------------------------------------------------------------------------------

     CUMULATIVE VOLUMES      L**3       RATES FOR THIS TIME STEP      L**3/T
     ------------------                 ------------------------

           IN:                                      IN:
           ---                                      ---
             STORAGE =           0.0000               STORAGE =           0.0000
       CONSTANT HEAD =           0.0000         CONSTANT HEAD =           0.0000
               WELLS =      490852.0000                 WELLS =        1681.0000
     HEAD DEP BOUNDS =           0.0000       HEAD DEP BOUNDS =           0.0000
          SWIADDTOCH =           0.0000            SWIADDTOCH =           0.0000

            TOTAL IN =      490852.0000              TOTAL IN =        1681.0000

          OUT:                                     OUT:
          ----                                     ----
             STORAGE =           0.0000               STORAGE =           0.0000
       CONSTANT HEAD =           0.0000         CONSTANT HEAD =           0.0000
               WELLS =           0.0000                 WELLS =           0.0000
     HEAD DEP BOUNDS =      490851.9374       HEAD DEP BOUNDS =        1681.0000
          SWIADDTOCH =           0.0000            SWIADDTOCH =           0.0000

           TOTAL OUT =      490851.9374             TOTAL OUT =        1681.0000

            IN - OUT =       6.2616E-02              IN - OUT =       9.0949E-13

 PERCENT DISCREPANCY =           0.00     PERCENT DISCREPANCY =           0.00


          TIME SUMMARY AT END OF TIME STEP     4 IN STRESS PERIOD      1
                    SECONDS     MINUTES      HOURS       DAYS        YEARS
                    -----------------------------------------------------------
   TIME STEP LENGTH 6.30720E+06 1.05120E+05  1752.0      73.000     0.19986    
 STRESS PERIOD TIME 2.52288E+07 4.20480E+05  7008.0      292.00     0.79945    
         TOTAL TIME 2.52288E+07 4.20480E+05  7008.0      292.00     0.79945    
 
 
 SOLVING FOR HEAD 


Solver Convergence Information:
                              HClose:  2.4541281E-7
                              RClose:  6.4054160E-5
                           L2-RClose:  4.6414025E-4
                         Rel-Vol-Err:  0.0
 

 OUTPUT CONTROL FOR STRESS PERIOD      1   TIME STEP     5
    PRINT BUDGET
    SAVE HEAD FOR ALL LAYERS
 SOLVING FOR ZETA FOR LAYER     1 ZONE     2

     841 UPPER PART EQS.       840 LOWER PART EQS.    BAND WIDTH + 1 =     42
 STRESS PERIOD=   1 TIMESTEP=    5 LAYER=   1 ZONE=   2 ACTIVE CELLS= 1681 NUMBER OF EQUATIONS=    1681
 UBUDSV SAVING "      ZETASRF  1" ON UNIT 55 AT TIME STEP 5, STRESS PERIOD 1


                      VOLUMETRIC SWI ZONE BUDGET FOR ENTIRE MODEL
                     AT END OF TIME STEP    5 IN STRESS PERIOD   1
                                      ZONE     1
  -----------------------------------------------------------------------------------

        CUMULATIVE VOLUMES      L**3       RATES FOR THIS TIME STEP      L**3/T
        ------------------                 ------------------------

              IN:                                      IN:
              ---                                      ---
             BOUNDARIES =      613565.0000            BOUNDARIES =        1681.0000
          CONSTANT HEAD =           0.0000         CONSTANT HEAD =           0.0000
            ZONE CHANGE =        2275.2367           ZONE CHANGE =           0.0000
       ZONE CHG TIP/TOE =        3075.0000      ZONE CHG TIP/TOE =          14.0411
            ZONE MIXING =           0.0000           ZONE MIXING =           0.0000

               TOTAL IN =      618915.2367              TOTAL IN =        1695.0411

             OUT:                                     OUT:
             ----                                     ----
             BOUNDARIES =       77986.1928            BOUNDARIES =           0.0000
          CONSTANT HEAD =           0.0000         CONSTANT HEAD =           0.0000
            ZONE CHANGE =      575030.7532           ZONE CHANGE =        1680.9998
       ZONE CHG TIP/TOE =        3075.0000      ZONE CHG TIP/TOE =          14.0411
            ZONE MIXING =           0.0000           ZONE MIXING =           0.0000

              TOTAL OUT =      656091.9460             TOTAL OUT =        1695.0409

               IN - OUT =      -37176.7092              IN - OUT =       1.6711E-04

    PERCENT DISCREPANCY =          -5.83     PERCENT DISCREPANCY =           0.00



                      VOLUMETRIC SWI ZONE BUDGET FOR ENTIRE MODEL
                     AT END OF TIME STEP    5 IN STRESS PERIOD   1
                                      ZONE     2
  -----------------------------------------------------------------------------------

        CUMULATIVE VOLUMES      L**3       RATES FOR THIS TIME STEP      L**3/T
        ------------------                 ------------------------

              IN:                                      IN:
              ---                                      ---
             BOUNDARIES =           0.0000            BOUNDARIES =           0.0000
          CONSTANT HEAD =           0.0000         CONSTANT HEAD =           0.0000
            ZONE CHANGE =      575030.7532           ZONE CHANGE =        1680.9998
       ZONE CHG TIP/TOE =       40251.8515      ZONE CHG TIP/TOE =          14.0411
            ZONE MIXING =           0.0000           ZONE MIXING =           0.0000

               TOTAL IN =      615282.6047              TOTAL IN =        1695.0409

             OUT:                                     OUT:
             ----                                     ----
             BOUNDARIES =      535578.7446            BOUNDARIES =        1681.0000
          CONSTANT HEAD =           0.0000         CONSTANT HEAD =           0.0000
            ZONE CHANGE =       39452.0882           ZONE CHANGE =           0.0000
       ZONE CHG TIP/TOE =        3075.0000      ZONE CHG TIP/TOE =          14.0411
            ZONE MIXING =           0.0000           ZONE MIXING =           0.0000

              TOTAL OUT =      578105.8328             TOTAL OUT =        1695.0411

               IN - OUT =       37176.7718              IN - OUT =      -1.6711E-04

    PERCENT DISCREPANCY =           6.23     PERCENT DISCREPANCY =          -0.00


 HEAD WILL BE SAVED ON UNIT   51 AT END OF TIME STEP     5 IN STRESS PERIOD      1



  -------------------------------------------------------------------------------------
  VOLUMETRIC BUDGET FOR ENTIRE MODEL AT END OF TIME STEP    5 IN STRESS PERIOD      1
  -------------------------------------------------------------------------------------

     CUMULATIVE VOLUMES      L**3       RATES FOR THIS TIME STEP      L**3/T
     ------------------                 ------------------------

           IN:                                      IN:
           ---                                      ---
             STORAGE =           0.0000               STORAGE =           0.0000
       CONSTANT HEAD =           0.0000         CONSTANT HEAD =           0.0000
               WELLS =      613565.0000                 WELLS =        1681.0000
     HEAD DEP BOUNDS =           0.0000       HEAD DEP BOUNDS =           0.0000
          SWIADDTOCH =           0.0000            SWIADDTOCH =           0.0000

            TOTAL IN =      613565.0000              TOTAL IN =        1681.0000

          OUT:                                     OUT:
          ----                                     ----
             STORAGE =           0.0000               STORAGE =           0.0000
       CONSTANT HEAD =           0.0000         CONSTANT HEAD =           0.0000
               WELLS =           0.0000                 WELLS =           0.0000
     HEAD DEP BOUNDS =      613564.9374       HEAD DEP BOUNDS =        1681.0000
          SWIADDTOCH =           0.0000            SWIADDTOCH =           0.0000

           TOTAL OUT =      613564.9374             TOTAL OUT =        1681.0000

            IN - OUT =       6.2616E-02              IN - OUT =      -2.2737E-12

 PERCENT DISCREPANCY =           0.00     PERCENT DISCREPANCY =          -0.00


          TIME SUMMARY AT END OF TIME STEP     5 IN STRESS PERIOD      1
                    SECONDS     MINUTES      HOURS       DAYS        YEARS
                    -----------------------------------------------------------
   TIME STEP LENGTH 6.30720E+06 1.05120E+05  1752.0      73.000     0.19986    
 STRESS PERIOD TIME 3.15360E+07 5.25600E+05  8760.0      365.00     0.99932    
         TOTAL TIME 3.15360E+07 5.25600E+05  8760.0      365.00     0.99932    
 
 
 SOLVING FOR HEAD 


Solver Convergence Information:
                              HClose:  5.4988109E-7
                              RClose:  1.6272905E-4
                           L2-RClose:  8.7827313E-4
                         Rel-Vol-Err:  0.0
 

 OUTPUT CONTROL FOR STRESS PERIOD      1   TIME STEP     6
    PRINT BUDGET
    SAVE HEAD FOR ALL LAYERS
 SOLVING FOR ZETA FOR LAYER     1 ZONE     2

     921 UPPER PART EQS.       924 LOWER PART EQS.    BAND WIDTH + 1 =     44
 STRESS PERIOD=   1 TIMESTEP=    6 LAYER=   1 ZONE=   2 ACTIVE CELLS= 1845 NUMBER OF EQUATIONS=    1845
 UBUDSV SAVING "      ZETASRF  1" ON UNIT 55 AT TIME STEP 6, STRESS PERIOD 1


                      VOLUMETRIC SWI ZONE BUDGET FOR ENTIRE MODEL
                     AT END OF TIME STEP    6 IN STRESS PERIOD   1
                                      ZONE     1
  -----------------------------------------------------------------------------------

        CUMULATIVE VOLUMES      L**3       RATES FOR THIS TIME STEP      L**3/T
        ------------------                 ------------------------

              IN:                                      IN:
              ---                                      ---
             BOUNDARIES =      736278.0000            BOUNDARIES =        1681.0000
          CONSTANT HEAD =           0.0000         CONSTANT HEAD =           0.0000
            ZONE CHANGE =        3315.5386           ZONE CHANGE =          14.2507
       ZONE CHG TIP/TOE =        3075.0000      ZONE CHG TIP/TOE =           0.0000
            ZONE MIXING =           0.0000           ZONE MIXING =           0.0000

               TOTAL IN =      742668.5386              TOTAL IN =        1695.2507

             OUT:                                     OUT:
             ----                                     ----
             BOUNDARIES =      117014.2444            BOUNDARIES =         534.6308
          CONSTANT HEAD =           0.0000         CONSTANT HEAD =           0.0000
            ZONE CHANGE =      677377.6998           ZONE CHANGE =        1402.0130
       ZONE CHG TIP/TOE =        3075.0000      ZONE CHG TIP/TOE =           0.0000
            ZONE MIXING =           0.0000           ZONE MIXING =           0.0000

              TOTAL OUT =      797466.9442             TOTAL OUT =        1936.6438

               IN - OUT =      -54798.4056              IN - OUT =        -241.3931

    PERCENT DISCREPANCY =          -7.12     PERCENT DISCREPANCY =         -13.29



                      VOLUMETRIC SWI ZONE BUDGET FOR ENTIRE MODEL
                     AT END OF TIME STEP    6 IN STRESS PERIOD   1
                                      ZONE     2
  -----------------------------------------------------------------------------------

        CUMULATIVE VOLUMES      L**3       RATES FOR THIS TIME STEP      L**3/T
        ------------------                 ------------------------

              IN:                                      IN:
              ---                                      ---
             BOUNDARIES =           0.0000            BOUNDARIES =           0.0000
          CONSTANT HEAD =           0.0000         CONSTANT HEAD =           0.0000
            ZONE CHANGE =      677377.6998           ZONE CHANGE =        1402.0130
       ZONE CHG TIP/TOE =       57873.6182      ZONE CHG TIP/TOE =         241.3941
            ZONE MIXING =           0.0000           ZONE MIXING =           0.0000

               TOTAL IN =      735251.3180              TOTAL IN =        1643.4070

             OUT:                                     OUT:
             ----                                     ----
             BOUNDARIES =      619263.6929            BOUNDARIES =        1146.3692
          CONSTANT HEAD =           0.0000         CONSTANT HEAD =           0.0000
            ZONE CHANGE =       58114.1568           ZONE CHANGE =         255.6448
       ZONE CHG TIP/TOE =        3075.0000      ZONE CHG TIP/TOE =           0.0000
            ZONE MIXING =           0.0000           ZONE MIXING =           0.0000

              TOTAL OUT =      680452.8498             TOTAL OUT =        1402.0139

               IN - OUT =       54798.4682              IN - OUT =         241.3931

    PERCENT DISCREPANCY =           7.74     PERCENT DISCREPANCY =          15.85


 HEAD WILL BE SAVED ON UNIT   51 AT END OF TIME STEP     6 IN STRESS PERIOD      1



  -------------------------------------------------------------------------------------
  VOLUMETRIC BUDGET FOR ENTIRE MODEL AT END OF TIME STEP    6 IN STRESS PERIOD      1
  -------------------------------------------------------------------------------------

     CUMULATIVE VOLUMES      L**3       RATES FOR THIS TIME STEP      L**3/T
     ------------------                 ------------------------

           IN:                                      IN:
           ---                                      ---
             STORAGE =           0.0000               STORAGE =           0.0000
       CONSTANT HEAD =           0.0000         CONSTANT HEAD =           0.0000
               WELLS =      736278.0000                 WELLS =        1681.0000
     HEAD DEP BOUNDS =           0.0000       HEAD DEP BOUNDS =           0.0000
          SWIADDTOCH =           0.0000            SWIADDTOCH =           0.0000

            TOTAL IN =      736278.0000              TOTAL IN =        1681.0000

          OUT:                                     OUT:
          ----                                     ----
             STORAGE =           0.0000               STORAGE =           0.0000
       CONSTANT HEAD =           0.0000         CONSTANT HEAD =           0.0000
               WELLS =           0.0000                 WELLS =           0.0000
     HEAD DEP BOUNDS =      736277.9374       HEAD DEP BOUNDS =        1681.0000
          SWIADDTOCH =           0.0000            SWIADDTOCH =           0.0000

           TOTAL OUT =      736277.9374             TOTAL OUT =        1681.0000

            IN - OUT =       6.2616E-02              IN - OUT =      -1.8190E-12

 PERCENT DISCREPANCY =           0.00     PERCENT DISCREPANCY =          -0.00


          TIME SUMMARY AT END OF TIME STEP     6 IN STRESS PERIOD      1
                    SECONDS     MINUTES      HOURS       DAYS        YEARS
                    -----------------------------------------------------------
   TIME STEP LENGTH 6.30720E+06 1.05120E+05  1752.0      73.000     0.19986    
 STRESS PERIOD TIME 3.78432E+07 6.30720E+05  10512.      438.00      1.1992    
         TOTAL TIME 3.78432E+07 6.30720E+05  10512.      438.00      1.1992    
 
 
 SOLVING FOR HEAD 


Solver Convergence Information:
                              HClose:  5.0947624E-7
                              RClose:  1.4637195E-4
                           L2-RClose:  9.4484285E-4
                         Rel-Vol-Err:  0.0
 

 OUTPUT CONTROL FOR STRESS PERIOD      1   TIME STEP     7
    PRINT BUDGET
    SAVE HEAD FOR ALL LAYERS
 SOLVING FOR ZETA FOR LAYER     1 ZONE     2

     841 UPPER PART EQS.       840 LOWER PART EQS.    BAND WIDTH + 1 =     42
 STRESS PERIOD=   1 TIMESTEP=    7 LAYER=   1 ZONE=   2 ACTIVE CELLS= 1681 NUMBER OF EQUATIONS=    1681
 UBUDSV SAVING "      ZETASRF  1" ON UNIT 55 AT TIME STEP 7, STRESS PERIOD 1


                      VOLUMETRIC SWI ZONE BUDGET FOR ENTIRE MODEL
                     AT END OF TIME STEP    7 IN STRESS PERIOD   1
                                      ZONE     1
  -----------------------------------------------------------------------------------

        CUMULATIVE VOLUMES      L**3       RATES FOR THIS TIME STEP      L**3/T
        ------------------                 ------------------------

              IN:                                      IN:
              ---                                      ---
             BOUNDARIES =      858991.0000            BOUNDARIES =        1681.0000
          CONSTANT HEAD =           0.0000         CONSTANT HEAD =           0.0000
            ZONE CHANGE =        3315.5386           ZONE CHANGE =           0.0000
       ZONE CHG TIP/TOE =        4100.0000      ZONE CHG TIP/TOE =          14.0411
            ZONE MIXING =           0.0000           ZONE MIXING =           0.0000

               TOTAL IN =      866406.5386              TOTAL IN =        1695.0411

             OUT:                                     OUT:
             ----                                     ----
             BOUNDARIES =      117014.2444            BOUNDARIES =           0.0000
          CONSTANT HEAD =           0.0000         CONSTANT HEAD =           0.0000
            ZONE CHANGE =      800090.6911           ZONE CHANGE =        1680.9999
       ZONE CHG TIP/TOE =        4100.0000      ZONE CHG TIP/TOE =          14.0411
            ZONE MIXING =           0.0000           ZONE MIXING =           0.0000

              TOTAL OUT =      921204.9356             TOTAL OUT =        1695.0410

               IN - OUT =      -54798.3970              IN - OUT =       1.1830E-04

    PERCENT DISCREPANCY =          -6.13     PERCENT DISCREPANCY =           0.00



                      VOLUMETRIC SWI ZONE BUDGET FOR ENTIRE MODEL
                     AT END OF TIME STEP    7 IN STRESS PERIOD   1
                                      ZONE     2
  -----------------------------------------------------------------------------------

        CUMULATIVE VOLUMES      L**3       RATES FOR THIS TIME STEP      L**3/T
        ------------------                 ------------------------

              IN:                                      IN:
              ---                                      ---
             BOUNDARIES =           0.0000            BOUNDARIES =           0.0000
          CONSTANT HEAD =           0.0000         CONSTANT HEAD =           0.0000
            ZONE CHANGE =      800090.6911           ZONE CHANGE =        1680.9999
       ZONE CHG TIP/TOE =       58898.6182      ZONE CHG TIP/TOE =          14.0411
            ZONE MIXING =           0.0000           ZONE MIXING =           0.0000

               TOTAL IN =      858989.3094              TOTAL IN =        1695.0410

             OUT:                                     OUT:
             ----                                     ----
             BOUNDARIES =      741976.6929            BOUNDARIES =        1681.0000
          CONSTANT HEAD =           0.0000         CONSTANT HEAD =           0.0000
            ZONE CHANGE =       58114.1568           ZONE CHANGE =           0.0000
       ZONE CHG TIP/TOE =        4100.0000      ZONE CHG TIP/TOE =          14.0411
            ZONE MIXING =           0.0000           ZONE MIXING =           0.0000

              TOTAL OUT =      804190.8498             TOTAL OUT =        1695.0411

               IN - OUT =       54798.4596              IN - OUT =      -1.1830E-04

    PERCENT DISCREPANCY =           6.59     PERCENT DISCREPANCY =          -0.00


 HEAD WILL BE SAVED ON UNIT   51 AT END OF TIME STEP     7 IN STRESS PERIOD      1



  -------------------------------------------------------------------------------------
  VOLUMETRIC BUDGET FOR ENTIRE MODEL AT END OF TIME STEP    7 IN STRESS PERIOD      1
  -------------------------------------------------------------------------------------

     CUMULATIVE VOLUMES      L**3       RATES FOR THIS TIME STEP      L**3/T
     ------------------                 ------------------------

           IN:                                      IN:
           ---                                      ---
             STORAGE =           0.0000               STORAGE =           0.0000
       CONSTANT HEAD =           0.0000         CONSTANT HEAD =           0.0000
               WELLS =      858991.0000                 WELLS =        1681.0000
     HEAD DEP BOUNDS =           0.0000       HEAD DEP BOUNDS =           0.0000
          SWIADDTOCH =           0.0000            SWIADDTOCH =           0.0000

            TOTAL IN =      858991.0000              TOTAL IN =        1681.0000

          OUT:                                     OUT:
          ----                                     ----
             STORAGE =           0.0000               STORAGE =           0.0000
       CONSTANT HEAD =           0.0000         CONSTANT HEAD =           0.0000
               WELLS =           0.0000                 WELLS =           0.0000
     HEAD DEP BOUNDS =      858990.9374       HEAD DEP BOUNDS =        1681.0000
          SWIADDTOCH =           0.0000            SWIADDTOCH =           0.0000

           TOTAL OUT =      858990.9374             TOTAL OUT =        1681.0000

            IN - OUT =       6.2616E-02              IN - OUT =      -2.5011E-12

 PERCENT DISCREPANCY =           0.00     PERCENT DISCREPANCY =          -0.00


          TIME SUMMARY AT END OF TIME STEP     7 IN STRESS PERIOD      1
                    SECONDS     MINUTES      HOURS       DAYS        YEARS
                    -----------------------------------------------------------
   TIME STEP LENGTH 6.30720E+06 1.05120E+05  1752.0      73.000     0.19986    
 STRESS PERIOD TIME 4.41504E+07 7.35840E+05  12264.      511.00      1.3990    
         TOTAL TIME 4.41504E+07 7.35840E+05  12264.      511.00      1.3990    
 
 
 SOLVING FOR HEAD 


Solver Convergence Information:
                              HClose:  4.9486114E-7
                              RClose:  1.5645317E-4
                           L2-RClose:  8.3070001E-4
                         Rel-Vol-Err:  0.0
 

 OUTPUT CONTROL FOR STRESS PERIOD      1   TIME STEP     8
    PRINT BUDGET
    SAVE HEAD FOR ALL LAYERS
 SOLVING FOR ZETA FOR LAYER     1 ZONE     2

     921 UPPER PART EQS.       924 LOWER PART EQS.    BAND WIDTH + 1 =     44
 STRESS PERIOD=   1 TIMESTEP=    8 LAYER=   1 ZONE=   2 ACTIVE CELLS= 1845 NUMBER OF EQUATIONS=    1845
 UBUDSV SAVING "      ZETASRF  1" ON UNIT 55 AT TIME STEP 8, STRESS PERIOD 1


                      VOLUMETRIC SWI ZONE BUDGET FOR ENTIRE MODEL
                     AT END OF TIME STEP    8 IN STRESS PERIOD   1
                                      ZONE     1
  -----------------------------------------------------------------------------------

        CUMULATIVE VOLUMES      L**3       RATES FOR THIS TIME STEP      L**3/T
        ------------------                 ------------------------

              IN:                                      IN:
              ---                                      ---
             BOUNDARIES =      981704.0000            BOUNDARIES =        1681.0000
          CONSTANT HEAD =           0.0000         CONSTANT HEAD =           0.0000
            ZONE CHANGE =        4340.5386           ZONE CHANGE =          14.0411
       ZONE CHG TIP/TOE =        4100.0000      ZONE CHG TIP/TOE =           0.0000
            ZONE MIXING =           0.0000           ZONE MIXING =           0.0000

               TOTAL IN =      990144.5386              TOTAL IN =        1695.0411

             OUT:                                     OUT:
             ----                                     ----
             BOUNDARIES =      156071.3059            BOUNDARIES =         535.0282
          CONSTANT HEAD =           0.0000         CONSTANT HEAD =           0.0000
            ZONE CHANGE =      901644.4732           ZONE CHANGE =        1391.1477
       ZONE CHG TIP/TOE =        4100.0000      ZONE CHG TIP/TOE =           0.0000
            ZONE MIXING =           0.0000           ZONE MIXING =           0.0000

              TOTAL OUT =     1061815.7791             TOTAL OUT =        1926.1759

               IN - OUT =      -71671.2405              IN - OUT =        -231.1348

    PERCENT DISCREPANCY =          -6.99     PERCENT DISCREPANCY =         -12.77



                      VOLUMETRIC SWI ZONE BUDGET FOR ENTIRE MODEL
                     AT END OF TIME STEP    8 IN STRESS PERIOD   1
                                      ZONE     2
  -----------------------------------------------------------------------------------

        CUMULATIVE VOLUMES      L**3       RATES FOR THIS TIME STEP      L**3/T
        ------------------                 ------------------------

              IN:                                      IN:
              ---                                      ---
             BOUNDARIES =           0.0000            BOUNDARIES =           0.0000
          CONSTANT HEAD =           0.0000         CONSTANT HEAD =           0.0000
            ZONE CHANGE =      901644.4732           ZONE CHANGE =        1391.1477
       ZONE CHG TIP/TOE =       75771.5106      ZONE CHG TIP/TOE =         231.1355
            ZONE MIXING =           0.0000           ZONE MIXING =           0.0000

               TOTAL IN =      977415.9838              TOTAL IN =        1622.2832

             OUT:                                     OUT:
             ----                                     ----
             BOUNDARIES =      825632.6315            BOUNDARIES =        1145.9718
          CONSTANT HEAD =           0.0000         CONSTANT HEAD =           0.0000
            ZONE CHANGE =       76012.0492           ZONE CHANGE =         245.1766
       ZONE CHG TIP/TOE =        4100.0000      ZONE CHG TIP/TOE =           0.0000
            ZONE MIXING =           0.0000           ZONE MIXING =           0.0000

              TOTAL OUT =      905744.6807             TOTAL OUT =        1391.1484

               IN - OUT =       71671.3031              IN - OUT =         231.1348

    PERCENT DISCREPANCY =           7.61     PERCENT DISCREPANCY =          15.34


 HEAD WILL BE SAVED ON UNIT   51 AT END OF TIME STEP     8 IN STRESS PERIOD      1



  -------------------------------------------------------------------------------------
  VOLUMETRIC BUDGET FOR ENTIRE MODEL AT END OF TIME STEP    8 IN STRESS PERIOD      1
  -------------------------------------------------------------------------------------

     CUMULATIVE VOLUMES      L**3       RATES FOR THIS TIME STEP      L**3/T
     ------------------                 ------------------------

           IN:                                      IN:
           ---                                      ---
             STORAGE =           0.0000               STORAGE =           0.0000
       CONSTANT HEAD =           0.0000         CONSTANT HEAD =           0.0000
               WELLS =      981704.0000                 WELLS =        1681.0000
     HEAD DEP BOUNDS =           0.0000       HEAD DEP BOUNDS =           0.0000
          SWIADDTOCH =           0.0000            SWIADDTOCH =           0.0000

            TOTAL IN =      981704.0000              TOTAL IN =        1681.0000

          OUT:                                     OUT:
          ----                                     ----
             STORAGE =           0.0000               STORAGE =           0.0000
       CONSTANT HEAD =           0.0000         CONSTANT HEAD =           0.0000
               WELLS =           0.0000                 WELLS =           0.0000
     HEAD DEP BOUNDS =      981703.9374       HEAD DEP BOUNDS =        1681.0000
          SWIADDTOCH =           0.0000            SWIADDTOCH =           0.0000

           TOTAL OUT =      981703.9374             TOTAL OUT =        1681.0000

            IN - OUT =       6.2616E-02              IN - OUT =       9.0949E-13

 PERCENT DISCREPANCY =           0.00     PERCENT DISCREPANCY =           0.00


          TIME SUMMARY AT END OF TIME STEP     8 IN STRESS PERIOD      1
                    SECONDS     MINUTES      HOURS       DAYS        YEARS
                    -----------------------------------------------------------
   TIME STEP LENGTH 6.30720E+06 1.05120E+05  1752.0      73.000     0.19986    
 STRESS PERIOD TIME 5.04576E+07 8.40960E+05  14016.      584.00      1.5989    
         TOTAL TIME 5.04576E+07 8.40960E+05  14016.      584.00      1.5989    
 
 
 SOLVING FOR HEAD 


Solver Convergence Information:
                              HClose:  5.5032085E-7
                              RClose:  1.5989243E-4
                           L2-RClose:  0.0010031
                         Rel-Vol-Err:  0.0
 

 OUTPUT CONTROL FOR STRESS PERIOD      1   TIME STEP     9
    PRINT BUDGET
    SAVE HEAD FOR ALL LAYERS
 SOLVING FOR ZETA FOR LAYER     1 ZONE     2

     841 UPPER PART EQS.       840 LOWER PART EQS.    BAND WIDTH + 1 =     42
 STRESS PERIOD=   1 TIMESTEP=    9 LAYER=   1 ZONE=   2 ACTIVE CELLS= 1681 NUMBER OF EQUATIONS=    1681
 UBUDSV SAVING "      ZETASRF  1" ON UNIT 55 AT TIME STEP 9, STRESS PERIOD 1


                      VOLUMETRIC SWI ZONE BUDGET FOR ENTIRE MODEL
                     AT END OF TIME STEP    9 IN STRESS PERIOD   1
                                      ZONE     1
  -----------------------------------------------------------------------------------

        CUMULATIVE VOLUMES      L**3       RATES FOR THIS TIME STEP      L**3/T
        ------------------                 ------------------------

              IN:                                      IN:
              ---                                      ---
             BOUNDARIES =     1104417.0000            BOUNDARIES =        1681.0000
          CONSTANT HEAD =           0.0000         CONSTANT HEAD =           0.0000
            ZONE CHANGE =        4340.5386           ZONE CHANGE =           0.0000
       ZONE CHG TIP/TOE =        5125.0000      ZONE CHG TIP/TOE =          14.0411
            ZONE MIXING =           0.0000           ZONE MIXING =           0.0000

               TOTAL IN =     1113882.5386              TOTAL IN =        1695.0411

             OUT:                                     OUT:
             ----                                     ----
             BOUNDARIES =      156071.3059            BOUNDARIES =           0.0000
          CONSTANT HEAD =           0.0000         CONSTANT HEAD =           0.0000
            ZONE CHANGE =     1024357.4560           ZONE CHANGE =        1680.9998
       ZONE CHG TIP/TOE =        5125.0000      ZONE CHG TIP/TOE =          14.0411
            ZONE MIXING =           0.0000           ZONE MIXING =           0.0000

              TOTAL OUT =     1185553.7620             TOTAL OUT =        1695.0409

               IN - OUT =      -71671.2234              IN - OUT =       2.3455E-04

    PERCENT DISCREPANCY =          -6.23     PERCENT DISCREPANCY =           0.00



                      VOLUMETRIC SWI ZONE BUDGET FOR ENTIRE MODEL
                     AT END OF TIME STEP    9 IN STRESS PERIOD   1
                                      ZONE     2
  -----------------------------------------------------------------------------------

        CUMULATIVE VOLUMES      L**3       RATES FOR THIS TIME STEP      L**3/T
        ------------------                 ------------------------

              IN:                                      IN:
              ---                                      ---
             BOUNDARIES =           0.0000            BOUNDARIES =           0.0000
          CONSTANT HEAD =           0.0000         CONSTANT HEAD =           0.0000
            ZONE CHANGE =     1024357.4560           ZONE CHANGE =        1680.9998
       ZONE CHG TIP/TOE =       76796.5106      ZONE CHG TIP/TOE =          14.0411
            ZONE MIXING =           0.0000           ZONE MIXING =           0.0000

               TOTAL IN =     1101153.9667              TOTAL IN =        1695.0409

             OUT:                                     OUT:
             ----                                     ----
             BOUNDARIES =      948345.6315            BOUNDARIES =        1681.0000
          CONSTANT HEAD =           0.0000         CONSTANT HEAD =           0.0000
            ZONE CHANGE =       76012.0492           ZONE CHANGE =           0.0000
       ZONE CHG TIP/TOE =        5125.0000      ZONE CHG TIP/TOE =          14.0411
            ZONE MIXING =           0.0000           ZONE MIXING =           0.0000

              TOTAL OUT =     1029482.6807             TOTAL OUT =        1695.0411

               IN - OUT =       71671.2860              IN - OUT =      -2.3455E-04

    PERCENT DISCREPANCY =           6.73     PERCENT DISCREPANCY =          -0.00


 HEAD WILL BE SAVED ON UNIT   51 AT END OF TIME STEP     9 IN STRESS PERIOD      1



  -------------------------------------------------------------------------------------
  VOLUMETRIC BUDGET FOR ENTIRE MODEL AT END OF TIME STEP    9 IN STRESS PERIOD      1
  -------------------------------------------------------------------------------------

     CUMULATIVE VOLUMES      L**3       RATES FOR THIS TIME STEP      L**3/T
     ------------------                 ------------------------

           IN:                                      IN:
           ---                                      ---
             STORAGE =           0.0000               STORAGE =           0.0000
       CONSTANT HEAD =           0.0000         CONSTANT HEAD =           0.0000
               WELLS =     1104417.0000                 WELLS =        1681.0000
     HEAD DEP BOUNDS =           0.0000       HEAD DEP BOUNDS =           0.0000
          SWIADDTOCH =           0.0000            SWIADDTOCH =           0.0000

            TOTAL IN =     1104417.0000              TOTAL IN =        1681.0000

          OUT:                                     OUT:
          ----                                     ----
             STORAGE =           0.0000               STORAGE =           0.0000
       CONSTANT HEAD =           0.0000         CONSTANT HEAD =           0.0000
               WELLS =           0.0000                 WELLS =           0.0000
     HEAD DEP BOUNDS =     1104416.9374       HEAD DEP BOUNDS =        1681.0000
          SWIADDTOCH =           0.0000            SWIADDTOCH =           0.0000

           TOTAL OUT =     1104416.9374             TOTAL OUT =        1681.0000

            IN - OUT =       6.2616E-02              IN - OUT =       3.4106E-12

 PERCENT DISCREPANCY =           0.00     PERCENT DISCREPANCY =           0.00


          TIME SUMMARY AT END OF TIME STEP     9 IN STRESS PERIOD      1
                    SECONDS     MINUTES      HOURS       DAYS        YEARS
                    -----------------------------------------------------------
   TIME STEP LENGTH 6.30720E+06 1.05120E+05  1752.0      73.000     0.19986    
 STRESS PERIOD TIME 5.67648E+07 9.46080E+05  15768.      657.00      1.7988    
         TOTAL TIME 5.67648E+07 9.46080E+05  15768.      657.00      1.7988    
 
 
 SOLVING FOR HEAD 


Solver Convergence Information:
                              HClose:  4.3644504E-7
                              RClose:  1.4644739E-4
                           L2-RClose:  7.7881237E-4
                         Rel-Vol-Err:  0.0
 

 OUTPUT CONTROL FOR STRESS PERIOD      1   TIME STEP    10
    PRINT BUDGET
    SAVE HEAD FOR ALL LAYERS
 SOLVING FOR ZETA FOR LAYER     1 ZONE     2

     921 UPPER PART EQS.       924 LOWER PART EQS.    BAND WIDTH + 1 =     44
 STRESS PERIOD=   1 TIMESTEP=   10 LAYER=   1 ZONE=   2 ACTIVE CELLS= 1845 NUMBER OF EQUATIONS=    1845
 UBUDSV SAVING "      ZETASRF  1" ON UNIT 55 AT TIME STEP 10, STRESS PERIOD 1


                      VOLUMETRIC SWI ZONE BUDGET FOR ENTIRE MODEL
                     AT END OF TIME STEP   10 IN STRESS PERIOD   1
                                      ZONE     1
  -----------------------------------------------------------------------------------

        CUMULATIVE VOLUMES      L**3       RATES FOR THIS TIME STEP      L**3/T
        ------------------                 ------------------------

              IN:                                      IN:
              ---                                      ---
             BOUNDARIES =     1227130.0000            BOUNDARIES =        1681.0000
          CONSTANT HEAD =           0.0000         CONSTANT HEAD =           0.0000
            ZONE CHANGE =        5365.5386           ZONE CHANGE =          14.0411
       ZONE CHG TIP/TOE =        5125.0000      ZONE CHG TIP/TOE =           0.0000
            ZONE MIXING =           0.0000           ZONE MIXING =           0.0000

               TOTAL IN =     1237620.5386              TOTAL IN =        1695.0411

             OUT:                                     OUT:
[...]
             BOUNDARIES =    17656163.2506            BOUNDARIES =           0.0000
          CONSTANT HEAD =           0.0000         CONSTANT HEAD =           0.0000
            ZONE CHANGE =     1236629.2931           ZONE CHANGE =         159.1051
       ZONE CHG TIP/TOE =      366826.8182      ZONE CHG TIP/TOE =           3.4787
            ZONE MIXING =           0.0000           ZONE MIXING =           0.0000

              TOTAL OUT =    19259619.3619             TOTAL OUT =         162.5838

               IN - OUT =      738488.0644              IN - OUT =       1.9765E-03

    PERCENT DISCREPANCY =           3.76     PERCENT DISCREPANCY =           0.00


 HEAD WILL BE SAVED ON UNIT   51 AT END OF TIME STEP    10 IN STRESS PERIOD      2



  -------------------------------------------------------------------------------------
  VOLUMETRIC BUDGET FOR ENTIRE MODEL AT END OF TIME STEP   10 IN STRESS PERIOD      2
  -------------------------------------------------------------------------------------

     CUMULATIVE VOLUMES      L**3       RATES FOR THIS TIME STEP      L**3/T
     ------------------                 ------------------------

           IN:                                      IN:
           ---                                      ---
             STORAGE =           0.0000               STORAGE =           0.0000
       CONSTANT HEAD =           0.0000         CONSTANT HEAD =           0.0000
               WELLS =   123326565.0000                 WELLS =        1681.0000
     HEAD DEP BOUNDS =       33453.6941       HEAD DEP BOUNDS =         100.5631
          SWIADDTOCH =           0.0000            SWIADDTOCH =           0.0000

            TOTAL IN =   123360018.6941              TOTAL IN =        1781.5631

          OUT:                                     OUT:
          ----                                     ----
             STORAGE =           0.0000               STORAGE =           0.0000
       CONSTANT HEAD =           0.0000         CONSTANT HEAD =           0.0000
               WELLS =       91250.0000                 WELLS =         250.0000
     HEAD DEP BOUNDS =   123268768.7264       HEAD DEP BOUNDS =        1531.5631
          SWIADDTOCH =           0.0000            SWIADDTOCH =           0.0000

           TOTAL OUT =   123360018.7264             TOTAL OUT =        1781.5631

            IN - OUT =      -3.2245E-02              IN - OUT =      -2.2737E-13

 PERCENT DISCREPANCY =          -0.00     PERCENT DISCREPANCY =          -0.00


          TIME SUMMARY AT END OF TIME STEP    10 IN STRESS PERIOD      2
                    SECONDS     MINUTES      HOURS       DAYS        YEARS
                    -----------------------------------------------------------
   TIME STEP LENGTH 3.15360E+06  52560.      876.00      36.500     9.99316E-02
 STRESS PERIOD TIME 3.15360E+07 5.25600E+05  8760.0      365.00     0.99932    
         TOTAL TIME 6.33874E+09 1.05646E+08 1.76076E+06  73365.      200.86    
 
 
 SOLVING FOR HEAD 


Solver Convergence Information:
                              HClose:  3.8040669E-7
                              RClose:  1.7034623E-4
                           L2-RClose:  0.0011397
                         Rel-Vol-Err:  0.0
 

 OUTPUT CONTROL FOR STRESS PERIOD      2   TIME STEP    11
    SAVE HEAD FOR ALL LAYERS
 SOLVING FOR ZETA FOR LAYER     1 ZONE     2

     646 UPPER PART EQS.       650 LOWER PART EQS.    BAND WIDTH + 1 =     29
 STRESS PERIOD=   2 TIMESTEP=   11 LAYER=   1 ZONE=   2 ACTIVE CELLS= 1296 NUMBER OF EQUATIONS=    1296
 SOLVING FOR ZETA FOR LAYER     2 ZONE     2

     629 UPPER PART EQS.       636 LOWER PART EQS.    BAND WIDTH + 1 =     36
 STRESS PERIOD=   2 TIMESTEP=   11 LAYER=   2 ZONE=   2 ACTIVE CELLS= 1265 NUMBER OF EQUATIONS=    1265
 UBUDSV SAVING "      ZETASRF  1" ON UNIT 55 AT TIME STEP 11, STRESS PERIOD 2

 HEAD WILL BE SAVED ON UNIT   51 AT END OF TIME STEP    11 IN STRESS PERIOD      2
 
 SOLVING FOR HEAD 

 OUTPUT CONTROL FOR STRESS PERIOD      2   TIME STEP   119
    SAVE HEAD FOR ALL LAYERS
 SOLVING FOR ZETA FOR LAYER     1 ZONE     2

     700 UPPER PART EQS.       715 LOWER PART EQS.    BAND WIDTH + 1 =     36
 STRESS PERIOD=   2 TIMESTEP=  119 LAYER=   1 ZONE=   2 ACTIVE CELLS= 1415 NUMBER OF EQUATIONS=    1415
 SOLVING FOR ZETA FOR LAYER     2 ZONE     2

     633 UPPER PART EQS.       642 LOWER PART EQS.    BAND WIDTH + 1 =     35
 STRESS PERIOD=   2 TIMESTEP=  119 LAYER=   2 ZONE=   2 ACTIVE CELLS= 1275 NUMBER OF EQUATIONS=    1275
 UBUDSV SAVING "      ZETASRF  1" ON UNIT 55 AT TIME STEP 119, STRESS PERIOD 2

 HEAD WILL BE SAVED ON UNIT   51 AT END OF TIME STEP   119 IN STRESS PERIOD      2
 
 SOLVING FOR HEAD 


Solver Convergence Information:
                              HClose:  3.6464922E-7
                              RClose:  2.6578407E-4
                           L2-RClose:  9.6808360E-4
                         Rel-Vol-Err:  0.0
 

 OUTPUT CONTROL FOR STRESS PERIOD      2   TIME STEP   120
    PRINT BUDGET
    SAVE HEAD FOR ALL LAYERS
 SOLVING FOR ZETA FOR LAYER     1 ZONE     2

     709 UPPER PART EQS.       715 LOWER PART EQS.    BAND WIDTH + 1 =     27
 STRESS PERIOD=   2 TIMESTEP=  120 LAYER=   1 ZONE=   2 ACTIVE CELLS= 1424 NUMBER OF EQUATIONS=    1424
 SOLVING FOR ZETA FOR LAYER     2 ZONE     2

     633 UPPER PART EQS.       642 LOWER PART EQS.    BAND WIDTH + 1 =     35
 STRESS PERIOD=   2 TIMESTEP=  120 LAYER=   2 ZONE=   2 ACTIVE CELLS= 1275 NUMBER OF EQUATIONS=    1275
 UBUDSV SAVING "      ZETASRF  1" ON UNIT 55 AT TIME STEP 120, STRESS PERIOD 2


                      VOLUMETRIC SWI ZONE BUDGET FOR ENTIRE MODEL
                     AT END OF TIME STEP  120 IN STRESS PERIOD   2
                                      ZONE     1
  -----------------------------------------------------------------------------------

        CUMULATIVE VOLUMES      L**3       RATES FOR THIS TIME STEP      L**3/T
        ------------------                 ------------------------

              IN:                                      IN:
              ---                                      ---
             BOUNDARIES =   130071400.0000            BOUNDARIES =        1680.0000
          CONSTANT HEAD =           0.0000         CONSTANT HEAD =           0.0000
            ZONE CHANGE =     1029904.9091           ZONE CHANGE =         117.4263
       ZONE CHG TIP/TOE =      418757.9247      ZONE CHG TIP/TOE =           3.1879
            ZONE MIXING =           0.0000           ZONE MIXING =           0.0000

               TOTAL IN =   131520062.8338              TOTAL IN =        1800.6142

             OUT:                                     OUT:
             ----                                     ----
             BOUNDARIES =   112921236.1362            BOUNDARIES =        1792.4808
          CONSTANT HEAD =           0.0000         CONSTANT HEAD =           0.0000
            ZONE CHANGE =    18907916.4831           ZONE CHANGE =           4.9455
       ZONE CHG TIP/TOE =      429916.6172      ZONE CHG TIP/TOE =           4.2153
            ZONE MIXING =           0.0000           ZONE MIXING =           0.0000

              TOTAL OUT =   132259069.2365             TOTAL OUT =        1801.6416

               IN - OUT =     -739006.4027              IN - OUT =          -1.0274

    PERCENT DISCREPANCY =          -0.56     PERCENT DISCREPANCY =          -0.06



                      VOLUMETRIC SWI ZONE BUDGET FOR ENTIRE MODEL
                     AT END OF TIME STEP  120 IN STRESS PERIOD   2
                                      ZONE     2
  -----------------------------------------------------------------------------------

        CUMULATIVE VOLUMES      L**3       RATES FOR THIS TIME STEP      L**3/T
        ------------------                 ------------------------

              IN:                                      IN:
              ---                                      ---
             BOUNDARIES =      505999.3546            BOUNDARIES =         112.4808
          CONSTANT HEAD =           0.0000         CONSTANT HEAD =           0.0000
            ZONE CHANGE =    18866265.5168           ZONE CHANGE =           4.8740
       ZONE CHG TIP/TOE =     1168447.2868      ZONE CHG TIP/TOE =           4.2153
            ZONE MIXING =           0.0000           ZONE MIXING =           0.0000

               TOTAL IN =    20540712.1582              TOTAL IN =         121.5701

             OUT:                                     OUT:
             ----                                     ----
             BOUNDARIES =    17656163.2506            BOUNDARIES =           0.0000
          CONSTANT HEAD =           0.0000         CONSTANT HEAD =           0.0000
            ZONE CHANGE =     1768435.5787           ZONE CHANGE =         117.4263
       ZONE CHG TIP/TOE =      377106.9584      ZONE CHG TIP/TOE =           3.1165
            ZONE MIXING =           0.0000           ZONE MIXING =           0.0000

              TOTAL OUT =    19801705.7877             TOTAL OUT =         120.5427

               IN - OUT =      739006.3705              IN - OUT =           1.0274

    PERCENT DISCREPANCY =           3.66     PERCENT DISCREPANCY =           0.85


 HEAD WILL BE SAVED ON UNIT   51 AT END OF TIME STEP   120 IN STRESS PERIOD      2



  -------------------------------------------------------------------------------------
  VOLUMETRIC BUDGET FOR ENTIRE MODEL AT END OF TIME STEP  120 IN STRESS PERIOD      2
  -------------------------------------------------------------------------------------

     CUMULATIVE VOLUMES      L**3       RATES FOR THIS TIME STEP      L**3/T
     ------------------                 ------------------------

           IN:                                      IN:
           ---                                      ---
             STORAGE =           0.0000               STORAGE =           0.0000
       CONSTANT HEAD =           0.0000         CONSTANT HEAD =           0.0000
               WELLS =   130075780.0000                 WELLS =        1681.0000
     HEAD DEP BOUNDS =      505999.3546       HEAD DEP BOUNDS =         112.4808
          SWIADDTOCH =           0.0000            SWIADDTOCH =           0.0000

            TOTAL IN =   130581779.3546              TOTAL IN =        1793.4808

          OUT:                                     OUT:
          ----                                     ----
             STORAGE =           0.0000               STORAGE =           0.0000
       CONSTANT HEAD =           0.0000         CONSTANT HEAD =           0.0000
               WELLS =     1095000.0000                 WELLS =         250.0000
     HEAD DEP BOUNDS =   129486779.3868       HEAD DEP BOUNDS =        1543.4808
          SWIADDTOCH =           0.0000            SWIADDTOCH =           0.0000

           TOTAL OUT =   130581779.3868             TOTAL OUT =        1793.4808

            IN - OUT =      -3.2244E-02              IN - OUT =      -4.5475E-13

 PERCENT DISCREPANCY =          -0.00     PERCENT DISCREPANCY =          -0.00


          TIME SUMMARY AT END OF TIME STEP   120 IN STRESS PERIOD      2
                    SECONDS     MINUTES      HOURS       DAYS        YEARS
                    -----------------------------------------------------------
   TIME STEP LENGTH 3.15360E+06  52560.      876.00      36.500     9.99316E-02
 STRESS PERIOD TIME 3.78432E+08 6.30720E+06 1.05120E+05  4380.0      11.992    
         TOTAL TIME 6.68563E+09 1.11427E+08 1.85712E+06  77380.      211.85    
 
1
                            STRESS PERIOD NO.      3, LENGTH =   6570.000    
                            -----------------------------------------------

                              NUMBER OF TIME STEPS =   180

                               MULTIPLIER FOR DELT =     1.000

                            INITIAL TIME STEP SIZE =   36.50000    

  OUTPUT CONTROL FOR STRESS PERIOD      3   TIME STEP   179
    SAVE HEAD FOR ALL LAYERS
 SOLVING FOR ZETA FOR LAYER     1 ZONE     2

     727 UPPER PART EQS.       735 LOWER PART EQS.    BAND WIDTH + 1 =     30
 STRESS PERIOD=   3 TIMESTEP=  179 LAYER=   1 ZONE=   2 ACTIVE CELLS= 1462 NUMBER OF EQUATIONS=    1462
 SOLVING FOR ZETA FOR LAYER     2 ZONE     2

     635 UPPER PART EQS.       636 LOWER PART EQS.    BAND WIDTH + 1 =     31
 STRESS PERIOD=   3 TIMESTEP=  179 LAYER=   2 ZONE=   2 ACTIVE CELLS= 1271 NUMBER OF EQUATIONS=    1271
 UBUDSV SAVING "      ZETASRF  1" ON UNIT 55 AT TIME STEP 179, STRESS PERIOD 3

 HEAD WILL BE SAVED ON UNIT   51 AT END OF TIME STEP   179 IN STRESS PERIOD      3
 
 SOLVING FOR HEAD 


Solver Convergence Information:
                              HClose:  4.4781342E-7
                              RClose:  4.2246327E-4
                           L2-RClose:  0.0015614
                         Rel-Vol-Err:  0.0
 

 OUTPUT CONTROL FOR STRESS PERIOD      3   TIME STEP   180
    PRINT BUDGET
    SAVE HEAD FOR ALL LAYERS
 SOLVING FOR ZETA FOR LAYER     1 ZONE     2

     736 UPPER PART EQS.       743 LOWER PART EQS.    BAND WIDTH + 1 =     29
 STRESS PERIOD=   3 TIMESTEP=  180 LAYER=   1 ZONE=   2 ACTIVE CELLS= 1479 NUMBER OF EQUATIONS=    1479
 SOLVING FOR ZETA FOR LAYER     2 ZONE     2

     635 UPPER PART EQS.       636 LOWER PART EQS.    BAND WIDTH + 1 =     31
 STRESS PERIOD=   3 TIMESTEP=  180 LAYER=   2 ZONE=   2 ACTIVE CELLS= 1271 NUMBER OF EQUATIONS=    1271
 UBUDSV SAVING "      ZETASRF  1" ON UNIT 55 AT TIME STEP 180, STRESS PERIOD 3


                      VOLUMETRIC SWI ZONE BUDGET FOR ENTIRE MODEL
                     AT END OF TIME STEP  180 IN STRESS PERIOD   3
                                      ZONE     1
  -----------------------------------------------------------------------------------

        CUMULATIVE VOLUMES      L**3       RATES FOR THIS TIME STEP      L**3/T
        ------------------                 ------------------------

              IN:                                      IN:
              ---                                      ---
             BOUNDARIES =   141109000.0000            BOUNDARIES =        1680.0000
          CONSTANT HEAD =           0.0000         CONSTANT HEAD =           0.0000
            ZONE CHANGE =     1614774.0924           ZONE CHANGE =          73.8403
       ZONE CHG TIP/TOE =      440009.9803      ZONE CHG TIP/TOE =           1.6904
            ZONE MIXING =           0.0000           ZONE MIXING =           0.0000

               TOTAL IN =   143163784.0726              TOTAL IN =        1755.5308

             OUT:                                     OUT:
             ----                                     ----
             BOUNDARIES =   124512940.9695            BOUNDARIES =        1749.8627
          CONSTANT HEAD =           0.0000         CONSTANT HEAD =           0.0000
            ZONE CHANGE =    18938679.9456           ZONE CHANGE =           3.9772
       ZONE CHG TIP/TOE =      452370.7077      ZONE CHG TIP/TOE =           1.5883
            ZONE MIXING =           0.0000           ZONE MIXING =           0.0000

              TOTAL OUT =   143903991.6228             TOTAL OUT =        1755.4282

               IN - OUT =     -740207.5501              IN - OUT =           0.1025

    PERCENT DISCREPANCY =          -0.52     PERCENT DISCREPANCY =           0.01



                      VOLUMETRIC SWI ZONE BUDGET FOR ENTIRE MODEL
                     AT END OF TIME STEP  180 IN STRESS PERIOD   3
                                      ZONE     2
  -----------------------------------------------------------------------------------

        CUMULATIVE VOLUMES      L**3       RATES FOR THIS TIME STEP      L**3/T
        ------------------                 ------------------------

              IN:                                      IN:
              ---                                      ---
             BOUNDARIES =     1224354.1073            BOUNDARIES =          94.8627
          CONSTANT HEAD =           0.0000         CONSTANT HEAD =           0.0000
            ZONE CHANGE =    18895123.5956           ZONE CHANGE =           3.7284
       ZONE CHG TIP/TOE =     1190902.3907      ZONE CHG TIP/TOE =           1.5883
            ZONE MIXING =           0.0000           ZONE MIXING =           0.0000

               TOTAL IN =    21310380.0935              TOTAL IN =         100.1795

             OUT:                                     OUT:
             ----                                     ----
             BOUNDARIES =    17820413.2506            BOUNDARIES =          25.0000
          CONSTANT HEAD =           0.0000         CONSTANT HEAD =           0.0000
            ZONE CHANGE =     2353305.7754           ZONE CHANGE =          73.8403
       ZONE CHG TIP/TOE =      396453.6302      ZONE CHG TIP/TOE =           1.4416
            ZONE MIXING =           0.0000           ZONE MIXING =           0.0000

              TOTAL OUT =    20570172.6562             TOTAL OUT =         100.2820

               IN - OUT =      740207.4374              IN - OUT =          -0.1025

    PERCENT DISCREPANCY =           3.53     PERCENT DISCREPANCY =          -0.10


 HEAD WILL BE SAVED ON UNIT   51 AT END OF TIME STEP   180 IN STRESS PERIOD      3



  -------------------------------------------------------------------------------------
  VOLUMETRIC BUDGET FOR ENTIRE MODEL AT END OF TIME STEP  180 IN STRESS PERIOD      3
  -------------------------------------------------------------------------------------

     CUMULATIVE VOLUMES      L**3       RATES FOR THIS TIME STEP      L**3/T
     ------------------                 ------------------------

           IN:                                      IN:
           ---                                      ---
             STORAGE =           0.0000               STORAGE =           0.0000
       CONSTANT HEAD =           0.0000         CONSTANT HEAD =           0.0000
               WELLS =   141119950.0000                 WELLS =        1681.0000
     HEAD DEP BOUNDS =     1224354.1073       HEAD DEP BOUNDS =          94.8627
          SWIADDTOCH =           0.0000            SWIADDTOCH =           0.0000

            TOTAL IN =   142344304.1073              TOTAL IN =        1775.8627

          OUT:                                     OUT:
          ----                                     ----
             STORAGE =           0.0000               STORAGE =           0.0000
       CONSTANT HEAD =           0.0000         CONSTANT HEAD =           0.0000
               WELLS =     2901750.0000                 WELLS =         275.0000
     HEAD DEP BOUNDS =   139442554.2200       HEAD DEP BOUNDS =        1500.8627
          SWIADDTOCH =           0.0000            SWIADDTOCH =           0.0000

           TOTAL OUT =   142344304.2200             TOTAL OUT =        1775.8627

            IN - OUT =          -0.1128              IN - OUT =       1.5916E-12

 PERCENT DISCREPANCY =          -0.00     PERCENT DISCREPANCY =           0.00


          TIME SUMMARY AT END OF TIME STEP   180 IN STRESS PERIOD      3
                    SECONDS     MINUTES      HOURS       DAYS        YEARS
                    -----------------------------------------------------------
   TIME STEP LENGTH 3.15360E+06  52560.      876.00      36.500     9.99316E-02
 STRESS PERIOD TIME 5.67648E+08 9.46080E+06 1.57680E+05  6570.0      17.988    
         TOTAL TIME 7.25328E+09 1.20888E+08 2.01480E+06  83950.      229.84    
 

 Final Remark:

   The solver successfully met the user supplied convergence criteria, HCLOSE and RCLOSE, for all 1300 time steps.

   Please check the "VOLUMETRIC BUDGET FOR ENTIRE MODEL" to ensure that mass rate balance errors are acceptable for all time steps.

   The cumulative mass error for the entire simulation is 0.00 %




 Simulation finished at  


 Which had an elapsed run time of: 0 minutes, 0 seconds


    OneWater Simulation Now Complete


