
      MMMMMMM                                       MM      MMM     MM
    MMM     MMM    MM      M   MMMMMMMM             LM     DM M     ML     MM     MMMMMMMMM  MMMMMMMM  MMMMMMMM
   MM         MM   MMM     M   MM                    MM    MM M     M     MMMM        M      M         MM     NM
   MM         MM   MM M    M   MM                    MM    M  MM   MM    MM  MM       M      M         MM      M
   MM         MM   MM  M   M   MMMMMMMM               MN  MM   M   MM   MM    MM      M      MMMMMMM   MMMMMMMMM
   MM         MM   MM   M  M   MM         MMMMMMM     MM  M    MM MM    MMMMMMMM      M      M         MM   MM
   MM         MM   MM    M M   MM                     LM MM    NM MM   MM      MM     M      M         MM    MM
    MM       NM    MM     MM   MM                      M M      M M   MN        MM    M      M         MM     MM
     MMMMMMMMN     MM      M   MMMMMMMM                7MM      7MM  MN          MM   M      MMMMMMMM  MM      MM


 MODFLOW-OWHM v2.0.01  


                        MODFLOW
            ONE-WATER HYDROLOGIC-FLOW MODEL

    U.S. GEOLOGICAL SURVEY MODULAR FINITE-DIFFERENCE 
           CONJUNCTIVE USE SIMULATION PROGRAM

                     Version 2.0

 Release: 01          4/23/2020

 Includes:
          MODFLOW-2005 Version 1.12.0   02/03/2017
          MODFLOW-FMP  Version 4.00.0   04/23/2017
          MODFLOW-SWR  Version 1.04.0   09/15/2016
          MODFLOW-SWI  Version 2.00.0   07/22/2013
          MODFLOW-LGR  Version 2.00.0   09/19/2013
          MODFLOW-NWT  Version 1.2.0    03/01/2020
          MODFLOW-CFP  Version 1.09.57  09/12/2017


 OneWater Simulation Initiated at  


 LIST FILE: ./output/swi2ex2_cont.list
      UNIT: 2

OPENING DATA FILES [DATA AND DATA(BINARY)]

OPENED DATA FILE ON UNIT     55 WITH FILENAME OF: ./output/swi2ex2_cont.zta
OPENED DATA FILE ON UNIT     56 WITH FILENAME OF: ./output/swi2ex2_cont.swb
OPENED DATA FILE ON UNIT     51 WITH FILENAME OF: ./output/swi2ex2_cont.hds
OPENED DATA FILE ON UNIT     52 WITH FILENAME OF: ./output/swi2ex2_cont.ddn
OPENED DATA FILE ON UNIT     53 WITH FILENAME OF: ./output/swi2ex2_cont.cbc

OPENING PACKAGES

DIS  PACKAGE OPENED.
BAS6 PACKAGE OPENED.
BCF  PACKAGE OPENED.
SWI  PACKAGE OPENED.
PCG  PACKAGE OPENED.
OC   PACKAGE OPENED.

NOTIFICATION: A FILE UNIT NUMBER WAS FOUND FOR EITHER THE LIST FILE OR A PACAKGE.
IT WILL BE USED EVEN THOUGH UNIT NUMBERS FOR THE LIST FILE AND PACKAGES ARE NOW OPTIONAL.
[IT IS RECOMMENDED TO STILL USE A UNIT NUMBER FOR DATA and DATA(BINARY) ]


 BAS -- BASIC PACKAGE, VERSION OWHM INPUT READ FROM UNIT    13
 
MODFLOW was compiled using uniform precision (Precision => Number of meaningful digits in numbers)
Precision of REAL and DOUBLE PRECISION variables: 15

 DISCRETIZATION INPUT DATA READ FROM UNIT   11

-- READING DIS PACKAGE INPUT --

# swi2ex2_cont
# MODFLOW-SWI Example problem documented in:
#   Bakker, M., Schaars, F., Hughes, J.D., Langevin, C.D., Dausman, A.M., 2013, Documentation of the seawater intrusion (SWI2) package for MODFLOW: U.S. Geological Survey Techniques and Methods 6-A46, 47 p.
#
#      -Comments are preceded by a # sign
#
#-----------------------------------------------------------------------------------------------------------------------------------------------------
# DIS


*** DIS COORDINATE SYSTEM NOT SEPECIFIED ***
DEFAULT VALUES APPLIED ARE 0° ROTATION
WITH THE ORIGIN (0,0) LOCATED AT THE MODEL'S LOWER LEFT CORNER




DIS COORDINATE SYSTEM SEPECIFIED WITH:
GRID ROTATION OF 0.0°
WITH THE ORIGIN LOCATED AT THE OUTER MOST CORNER OF MODEL CELL [1,1] WITH:
X-COORDINATE:0.0
Y-COORDINATE:0.0
    1 LAYERS         1 ROWS        60 COLUMNS
      1 STRESS PERIOD(S) IN SIMULATION
 MODEL TIME UNIT IS DAYS
 MODEL LENGTH UNIT IS METERS
  Confining bed flag for each layer:
   0
         0  5.000e+00           (5G13.0)         -1                # DELR(NCOL)                                                                                                                                                                                                                                                                                                                                                                                                                                                                                                                                                                                                                                                                                                                  

                     DELR =   5.00000    
         0  1.000e+00           (5G13.0)         -1                # DELC(NROW)                                                                                                                                                                                                                                                                                                                                                                                                                                                                                                                                                                                                                                                                                                                  

                     DELC =   1.00000    



           TOP ELEVATION OF LAYER 1
 READING ON UNIT   11 WITH FORMAT:            (5G13.0) 



             MODEL LAYER BOTTOM EL. FOR LAYER   1
 READING ON UNIT   11 WITH FORMAT:            (5G13.0) 


 STRESS PERIOD     LENGTH       TIME STEPS     MULTIPLIER FOR DELT    SS FLAG  (OPTIONAL TIME STEP LENGTH)
 ---------------------------------------------------------------------------------------------------
        1         2000.000       1000                  1.00000         SS

 STEADY-STATE SIMULATION




-- READING BAS PACKAGE INPUT --

# swi2ex2_cont
# MODFLOW-SWI Example problem documented in:
#   Bakker, M., Schaars, F., Hughes, J.D., Langevin, C.D., Dausman, A.M., 2013, Documentation of the seawater intrusion (SWI2) package for MODFLOW: U.S. Geological Survey Techniques and Methods 6-A46, 47 p.
#
# Input modified for MODFLOW-OWHM by adding a BAS OPTIONS BLOCK with output options.
#
#-----------------------------------------------------------------------------------------------------------------------------------------------------
# Basic package


 THE BAS PACKAGE NOW DEFAULTS TO FREE FORMAT.
 USE OPTION "NOFREE" TO DISABLE FREE FORMAT.

 NOW READING BAS OPTIONS

 FOUND OPTION: NOCBC
    NO CELL-BY-CELL FLOWS WILL BE WRITTEN.

 FOUND OPTION: BUDGETDB
 FOUND OPTION: CUMULATIVE_HEAD_CHANGE
    THIS OPTION IS ONLY USEFUL FOR MODEL RESULT COMPARISON WITH DIFFERENT CODE COMPARISONS.

 FOUND OPTION: PRINT_HEAD    SP    TS   FILE
                              1  1000   ./output/swi2ex2_cont_Head.txt

 THE MAX STORAGE FOR PROPERTIES DEFINED BY PARAMETERS IS: 
 MAX STORAGE OF PARAMETERS (MXPAR)  IS       2000
 MAX STORAGE OF INSTANCES  (MXINST) IS      50000
 MAX STORAGE OF CLUSTERS   (MXCLST) IS    2000000




                     BOUNDARY ARRAY FOR LAYER   1
 READING ON UNIT   13 WITH FORMAT:               (5I4) 

 AQUIFER HEAD WILL BE SET TO -999.99 AT ALL NO-FLOW NODES (IBOUND=0).




                       INITIAL HEAD FOR LAYER   1
 READING ON UNIT   13 WITH FORMAT:            (5G13.0) 

-- READING OC PACKAGE INPUT --

# swi2ex2_cont
# MODFLOW-SWI Example problem documented in:
#   Bakker, M., Schaars, F., Hughes, J.D., Langevin, C.D., Dausman, A.M., 2013, Documentation of the seawater intrusion (SWI2) package for MODFLOW: U.S. Geological Survey Techniques and Methods 6-A46, 47 p.
#
#      -Comments are preceded by a # sign
#
#-----------------------------------------------------------------------------------------------------------------------------------------------------

# OC


 OUTPUT CONTROL IS SPECIFIED EVERY TIME STEP
 HEAD PRINT FORMAT CODE IS   0    DRAWDOWN PRINT FORMAT CODE IS   0
 HEADS WILL BE SAVED ON UNIT   51    DRAWDOWNS WILL BE SAVED ON UNIT   52

 BCF -- BLOCK-CENTERED FLOW PACKAGE, VERSION 7, 5/2/2005
         INPUT READ FROM UNIT 15

-- READING BCF PACKAGE INPUT --

# swi2ex2_cont
# MODFLOW-SWI Example problem documented in:
#   Bakker, M., Schaars, F., Hughes, J.D., Langevin, C.D., Dausman, A.M., 2013, Documentation of the seawater intrusion (SWI2) package for MODFLOW: U.S. Geological Survey Techniques and Methods 6-A46, 47 p.
#
#      -Comments are preceded by a # sign
#
#-----------------------------------------------------------------------------------------------------------------------------------------------------


 STEADY-STATE SIMULATION
 HEAD AT CELLS THAT CONVERT TO DRY= -0.10000E+31
 WETTING CAPABILITY IS NOT ACTIVE
      LAYER  LAYER-TYPE CODE     INTERBLOCK T
      --------------------------------------------
         1            0          0 -- HARMONIC    
         15         1           (5G13.0)         -1 # TRPY(): Anisotropy factor of layers                                                                                                                                                                                                                                                                                                                                                                                                                                                                                                                                                                                                                                                                                                        



           COLUMN TO ROW ANISOTROPY
 READING ON UNIT   15 WITH FORMAT:            (5G13.0) 



               TRANSMIS. ALONG ROWS FOR LAYER   1
 READING ON UNIT   15 WITH FORMAT:           (60G13.0) 

 PCG -- CONJUGATE-GRADIENT SOLUTION PACKAGE, VERSION OWHM

-- READING PCG PACKAGE INPUT --

# swi2ex2_cont
# MODFLOW-SWI Example problem documented in:
#   Bakker, M., Schaars, F., Hughes, J.D., Langevin, C.D., Dausman, A.M., 2013, Documentation of the seawater intrusion (SWI2) package for MODFLOW: U.S. Geological Survey Techniques and Methods 6-A46, 47 p.
#
#-----------------------------------------------------------------------------------------------------------------------------------------------------
# PCG

 MAXIMUM OF    100 CALLS OF SOLUTION ROUTINE
 MAXIMUM OF     50 INTERNAL ITERATIONS PER CALL TO SOLUTION ROUTINE
 MATRIX PRECONDITIONING TYPE :    1



                                    SOLUTION BY THE CONJUGATE-GRADIENT METHOD
                                   -------------------------------------------
                    MAXIMUM NUMBER OF CALLS TO PCG ROUTINE =      100
                        MAXIMUM ITERATIONS PER CALL TO PCG =       50
                               MATRIX PRECONDITIONING TYPE =        1
        RELAXATION FACTOR (ONLY USED WITH PRECOND. TYPE 1) =    0.10000E+01
 PARAMETER OF POLYNOMIAL PRECOND. = 2 (2) OR IS CALCULATED :        0
                         HEAD CHANGE CRITERION FOR CLOSURE =    0.10000E-03
                     RESIDUAL CHANGE CRITERION FOR CLOSURE =    0.10000E-03
            PCG HEAD AND RESIDUAL CHANGE PRINTOUT INTERVAL =      999
     PRINTING FROM SOLVER IS LIMITED(1) OR SUPPRESSED (>1) =        3
                            STEADY-STATE DAMPING PARAMETER =    0.10000E+01
                               TRANSIENT DAMPING PARAMETER =    0.10000E+01

-- READING SWI PACKAGE INPUT --

# swi2ex2_cont
# MODFLOW-SWI Example problem documented in:
#   Bakker, M., Schaars, F., Hughes, J.D., Langevin, C.D., Dausman, A.M., 2013, Documentation of the seawater intrusion (SWI2) package for MODFLOW: U.S. Geological Survey Techniques and Methods 6-A46, 47 p.
#
#      -Comments are preceded by a # sign
#
#-----------------------------------------------------------------------------------------------------------------------------------------------------
# Salt Water Intrusion
#--Dataset 1



 SWI2 -- SWI PACKAGE, VERSION OWHM
 --------------------------------------------------
 SWI2 INPUT READ FROM UNIT 29




 SWI2 DATASET 1
 ----------------------------------------------------
 NUMBER OF SURFACES (NSRF):                         2
 TOTAL NUMBER OF ZONES:                             3
 DENSITY DISTRIBUTION OPTION (ISTRAT):              0
   VARIABLE DENSITY FLOW -- ISTRAT = 0
   STRATIFIED FLOW       -- ISTRAT = 1
 NUMBER OF SWI OBSERVATIONS (NOBS):                 0
 ZETA OUTPUT FILE UNIT NUMBER (ISWIZT):            55
 BUDGET OUTPUT FILE UNIT NUMBER (ISWICB):           0
 OBSERVATION OUTPUT FILE UNIT NUMBER (ISWIOBS):     0
 ----------------------------------------------------


 SWI2 DATASET 2A
 ----------------------------------------------------
 SOLVER (NSOLVER):                                  1
   SOLVER =                      DIRECT SOLVER (DE4)
 SOLVER PRINTOUT INTERVAL (IPRSOL):               999
 SOLVER OUTPUT FLAG (MUTSOL):                       3
   0 = PRINTING EVERY ITERATION
   1 = LIMITED (TOTAL NUMBER OF ITERATIONS)
   2 = NO PRINTING
   3 = ONLY IF CONVERGENCE FAILS
 ----------------------------------------------------


 SWI2 DATASET 3A
 ----------------------------------------------------
 MAXIMUM TOE SURFACE SLOPE (TOESLOPE):      0.200    
 MAXIMUM TIP SURFACE SLOPE (TIPSLOPE):      0.200    
 EXCESS SURFACE SLOPE FRACTION (ALPHA):     0.100    
 MINIMUM ZONE THICKNESS FRACTION (BETA):    0.100    
 ----------------------------------------------------
         29         1          (20G13.0)         -1                                                                                                                                                                                                                                                                                                                                                                                                                                                                                                                                                                                                                                                                                                                                              



                              NUSRF
 READING ON UNIT   29 WITH FORMAT:           (20G13.0) 



                   ZETA SURFACE  1  FOR LAYER   1
 READING ON UNIT   29 WITH FORMAT:           (60G13.0) 



                   ZETA SURFACE  2  FOR LAYER   1
 READING ON UNIT   29 WITH FORMAT:           (60G13.0) 

                      SSZ =  0.200000     FOR LAYER   1



                            IZONENR FOR LAYER   1
 READING ON UNIT   29 WITH FORMAT:             (60I13) 


########################################################################################################

                           WARNING_MESSAGE

         THE FOLLOWING COMMENTS WERE PASSED TO THE WARNING ROUTINE

THE DESRIPTION OF THE WARNING IS:

DIS PACKAGE: THE GROUND SURFACE ELEVATION WAS NOT SPECIFIED WITH THE KEYWORD "SURFACE_ELEVATION"

BEFORE LOADING THE "TOP" ARRAY FOR LAYER 1
NOR WAS IT DEFINED WITH ANOTHER PACKAGE   (e.g. FMPs GLOBAL DIMENSION KEYWORD "SURFACE_ELEVATION")

OneWater WILL SET THE GROUND SURFACE ELEVATION (GSE)
TO THE TOP ELEVATION OF THE UPPER MOST ACTIVE CELL OR THE DIS TOP OF LAY1.

NOTE THAT SFR DOES USE GSE FOR ALL DIVERSION SEGMENTS
   WHEN "IRDFLG" IS SET TO 2 or -2.

########################################################################################################



1
                            STRESS PERIOD NO.      1, LENGTH =   2000.000    
                            -----------------------------------------------

                              NUMBER OF TIME STEPS =  1000

                               MULTIPLIER FOR DELT =     1.000

                            INITIAL TIME STEP SIZE =   2.000000    

PARAMETERS HAVE BEEN USED IN PACKAGES

THE CURRENT STORAGE FOR PARAMETERS IS: 
No. PARAMETER=         0 WITH MAX STORAGE (MXPAR)  OF      2000
No. CLUSTERS =         0 WITH MAX STORAGE (MXCLST) OF   2000000
No. INSTANCES=         0 WITH MAX STORAGE (MXINST) OF     50000

YOU CAN INCREASE/DECREASE STORAGE WITH BAS OPTION:
MAXPARAM  MXPAR  MXCLST MXINST

FYI, YOU CAN REDUCE RAM USUAGE WITH BAS OPTION
(NOTE THE THREE NUMBERS ARE A MINUMUM SIZE):
   MAXPARAM          1         1         1

 
 SOLVING FOR HEAD 

 HEAD/DRAWDOWN PRINTOUT FLAG = 1     TOTAL BUDGET PRINTOUT FLAG = 0
 CELL-BY-CELL FLOW TERM FLAG = 1

 OUTPUT FLAGS FOR ALL LAYERS ARE THE SAME:
   HEAD    DRAWDOWN  HEAD  DRAWDOWN
 PRINTOUT  PRINTOUT  SAVE    SAVE
 ----------------------------------
     0         0       0       0
 SOLVING FOR ZETA FOR LAYER     1 ZONE     2

       4 UPPER PART EQS.         4 LOWER PART EQS.    BAND WIDTH + 1 =      2
 STRESS PERIOD=   1 TIMESTEP=    1 LAYER=   1 ZONE=   2 ACTIVE CELLS=    8 NUMBER OF EQUATIONS=       8
 SOLVING FOR ZETA FOR LAYER     1 ZONE     3
 STRESS PERIOD=   1 TIMESTEP=    1 LAYER=   1 ZONE=   3 ACTIVE CELLS=    8 NUMBER OF EQUATIONS=       8
 
 SOLVING FOR HEAD 

 HEAD/DRAWDOWN PRINTOUT FLAG = 1     TOTAL BUDGET PRINTOUT FLAG = 0
 CELL-BY-CELL FLOW TERM FLAG = 1

 OUTPUT FLAGS FOR ALL LAYERS ARE THE SAME:
   HEAD    DRAWDOWN  HEAD  DRAWDOWN
 PRINTOUT  PRINTOUT  SAVE    SAVE
 ----------------------------------
     0         0       0       0
 SOLVING FOR ZETA FOR LAYER     1 ZONE     2

       5 UPPER PART EQS.         5 LOWER PART EQS.    BAND WIDTH + 1 =      2
 STRESS PERIOD=   1 TIMESTEP=    2 LAYER=   1 ZONE=   2 ACTIVE CELLS=   10 NUMBER OF EQUATIONS=      10
 SOLVING FOR ZETA FOR LAYER     1 ZONE     3
 STRESS PERIOD=   1 TIMESTEP=    2 LAYER=   1 ZONE=   3 ACTIVE CELLS=   10 NUMBER OF EQUATIONS=      10
 
 SOLVING FOR HEAD 

 HEAD/DRAWDOWN PRINTOUT FLAG = 1     TOTAL BUDGET PRINTOUT FLAG = 0
 CELL-BY-CELL FLOW TERM FLAG = 1

 OUTPUT FLAGS FOR ALL LAYERS ARE THE SAME:
   HEAD    DRAWDOWN  HEAD  DRAWDOWN
 PRINTOUT  PRINTOUT  SAVE    SAVE
 ----------------------------------
     0         0       0       0
 SOLVING FOR ZETA FOR LAYER     1 ZONE     2
 STRESS PERIOD=   1 TIMESTEP=    3 LAYER=   1 ZONE=   2 ACTIVE CELLS=   10 NUMBER OF EQUATIONS=      10
 SOLVING FOR ZETA FOR LAYER     1 ZONE     3
 STRESS PERIOD=   1 TIMESTEP=    3 LAYER=   1 ZONE=   3 ACTIVE CELLS=   10 NUMBER OF EQUATIONS=      10
 
 SOLVING FOR HEAD 

 HEAD/DRAWDOWN PRINTOUT FLAG = 1     TOTAL BUDGET PRINTOUT FLAG = 0
 CELL-BY-CELL FLOW TERM FLAG = 1

 OUTPUT FLAGS FOR ALL LAYERS ARE THE SAME:
   HEAD    DRAWDOWN  HEAD  DRAWDOWN
 PRINTOUT  PRINTOUT  SAVE    SAVE
 ----------------------------------
     0         0       0       0
 SOLVING FOR ZETA FOR LAYER     1 ZONE     2
 STRESS PERIOD=   1 TIMESTEP=    4 LAYER=   1 ZONE=   2 ACTIVE CELLS=   10 NUMBER OF EQUATIONS=      10
 SOLVING FOR ZETA FOR LAYER     1 ZONE     3
 STRESS PERIOD=   1 TIMESTEP=    4 LAYER=   1 ZONE=   3 ACTIVE CELLS=   10 NUMBER OF EQUATIONS=      10
 
 SOLVING FOR HEAD 

 HEAD/DRAWDOWN PRINTOUT FLAG = 1     TOTAL BUDGET PRINTOUT FLAG = 0
 CELL-BY-CELL FLOW TERM FLAG = 1

 OUTPUT FLAGS FOR ALL LAYERS ARE THE SAME:
   HEAD    DRAWDOWN  HEAD  DRAWDOWN
 PRINTOUT  PRINTOUT  SAVE    SAVE
 ----------------------------------
     0         0       0       0
 SOLVING FOR ZETA FOR LAYER     1 ZONE     2
 STRESS PERIOD=   1 TIMESTEP=    5 LAYER=   1 ZONE=   2 ACTIVE CELLS=   10 NUMBER OF EQUATIONS=      10
 SOLVING FOR ZETA FOR LAYER     1 ZONE     3
 STRESS PERIOD=   1 TIMESTEP=    5 LAYER=   1 ZONE=   3 ACTIVE CELLS=   10 NUMBER OF EQUATIONS=      10
 
 SOLVING FOR HEAD 

 HEAD/DRAWDOWN PRINTOUT FLAG = 1     TOTAL BUDGET PRINTOUT FLAG = 0
 CELL-BY-CELL FLOW TERM FLAG = 1

 OUTPUT FLAGS FOR ALL LAYERS ARE THE SAME:
   HEAD    DRAWDOWN  HEAD  DRAWDOWN
 PRINTOUT  PRINTOUT  SAVE    SAVE
 ----------------------------------
     0         0       0       0
 SOLVING FOR ZETA FOR LAYER     1 ZONE     2
 STRESS PERIOD=   1 TIMESTEP=    6 LAYER=   1 ZONE=   2 ACTIVE CELLS=   10 NUMBER OF EQUATIONS=      10
 SOLVING FOR ZETA FOR LAYER     1 ZONE     3
 STRESS PERIOD=   1 TIMESTEP=    6 LAYER=   1 ZONE=   3 ACTIVE CELLS=   10 NUMBER OF EQUATIONS=      10
 
 SOLVING FOR HEAD 

 HEAD/DRAWDOWN PRINTOUT FLAG = 1     TOTAL BUDGET PRINTOUT FLAG = 0
 CELL-BY-CELL FLOW TERM FLAG = 1

 OUTPUT FLAGS FOR ALL LAYERS ARE THE SAME:
   HEAD    DRAWDOWN  HEAD  DRAWDOWN
 PRINTOUT  PRINTOUT  SAVE    SAVE
 ----------------------------------
     0         0       0       0
 SOLVING FOR ZETA FOR LAYER     1 ZONE     2
 STRESS PERIOD=   1 TIMESTEP=    7 LAYER=   1 ZONE=   2 ACTIVE CELLS=   10 NUMBER OF EQUATIONS=      10
 SOLVING FOR ZETA FOR LAYER     1 ZONE     3
 STRESS PERIOD=   1 TIMESTEP=    7 LAYER=   1 ZONE=   3 ACTIVE CELLS=   10 NUMBER OF EQUATIONS=      10
 
 SOLVING FOR HEAD 

 HEAD/DRAWDOWN PRINTOUT FLAG = 1     TOTAL BUDGET PRINTOUT FLAG = 0
 CELL-BY-CELL FLOW TERM FLAG = 1

 OUTPUT FLAGS FOR ALL LAYERS ARE THE SAME:
   HEAD    DRAWDOWN  HEAD  DRAWDOWN
 PRINTOUT  PRINTOUT  SAVE    SAVE
 ----------------------------------
     0         0       0       0
 SOLVING FOR ZETA FOR LAYER     1 ZONE     2
 STRESS PERIOD=   1 TIMESTEP=    8 LAYER=   1 ZONE=   2 ACTIVE CELLS=   10 NUMBER OF EQUATIONS=      10
 SOLVING FOR ZETA FOR LAYER     1 ZONE     3
 STRESS PERIOD=   1 TIMESTEP=    8 LAYER=   1 ZONE=   3 ACTIVE CELLS=   10 NUMBER OF EQUATIONS=      10
 
 SOLVING FOR HEAD 

 HEAD/DRAWDOWN PRINTOUT FLAG = 1     TOTAL BUDGET PRINTOUT FLAG = 0
 CELL-BY-CELL FLOW TERM FLAG = 1

 OUTPUT FLAGS FOR ALL LAYERS ARE THE SAME:
   HEAD    DRAWDOWN  HEAD  DRAWDOWN
 PRINTOUT  PRINTOUT  SAVE    SAVE
 ----------------------------------
     0         0       0       0
 SOLVING FOR ZETA FOR LAYER     1 ZONE     2
 STRESS PERIOD=   1 TIMESTEP=    9 LAYER=   1 ZONE=   2 ACTIVE CELLS=   10 NUMBER OF EQUATIONS=      10
 SOLVING FOR ZETA FOR LAYER     1 ZONE     3
 STRESS PERIOD=   1 TIMESTEP=    9 LAYER=   1 ZONE=   3 ACTIVE CELLS=   10 NUMBER OF EQUATIONS=      10
 
 SOLVING FOR HEAD 

 HEAD/DRAWDOWN PRINTOUT FLAG = 1     TOTAL BUDGET PRINTOUT FLAG = 0
 CELL-BY-CELL FLOW TERM FLAG = 1

 OUTPUT FLAGS FOR ALL LAYERS ARE THE SAME:
   HEAD    DRAWDOWN  HEAD  DRAWDOWN
 PRINTOUT  PRINTOUT  SAVE    SAVE
 ----------------------------------
     0         0       0       0
 SOLVING FOR ZETA FOR LAYER     1 ZONE     2
 STRESS PERIOD=   1 TIMESTEP=   10 LAYER=   1 ZONE=   2 ACTIVE CELLS=   10 NUMBER OF EQUATIONS=      10
 SOLVING FOR ZETA FOR LAYER     1 ZONE     3
 STRESS PERIOD=   1 TIMESTEP=   10 LAYER=   1 ZONE=   3 ACTIVE CELLS=   10 NUMBER OF EQUATIONS=      10
 
 SOLVING FOR HEAD 

 HEAD/DRAWDOWN PRINTOUT FLAG = 1     TOTAL BUDGET PRINTOUT FLAG = 0
 CELL-BY-CELL FLOW TERM FLAG = 1

 OUTPUT FLAGS FOR ALL LAYERS ARE THE SAME:
   HEAD    DRAWDOWN  HEAD  DRAWDOWN
 PRINTOUT  PRINTOUT  SAVE    SAVE
 ----------------------------------
     0         0       0       0
 SOLVING FOR ZETA FOR LAYER     1 ZONE     2
 STRESS PERIOD=   1 TIMESTEP=   11 LAYER=   1 ZONE=   2 ACTIVE CELLS=   10 NUMBER OF EQUATIONS=      10
 SOLVING FOR ZETA FOR LAYER     1 ZONE     3
 STRESS PERIOD=   1 TIMESTEP=   11 LAYER=   1 ZONE=   3 ACTIVE CELLS=   10 NUMBER OF EQUATIONS=      10
 
 SOLVING FOR HEAD 

 HEAD/DRAWDOWN PRINTOUT FLAG = 1     TOTAL BUDGET PRINTOUT FLAG = 0
 CELL-BY-CELL FLOW TERM FLAG = 1

 OUTPUT FLAGS FOR ALL LAYERS ARE THE SAME:
   HEAD    DRAWDOWN  HEAD  DRAWDOWN
 PRINTOUT  PRINTOUT  SAVE    SAVE
 ----------------------------------
     0         0       0       0
 SOLVING FOR ZETA FOR LAYER     1 ZONE     2
 STRESS PERIOD=   1 TIMESTEP=   12 LAYER=   1 ZONE=   2 ACTIVE CELLS=   10 NUMBER OF EQUATIONS=      10
 SOLVING FOR ZETA FOR LAYER     1 ZONE     3
 STRESS PERIOD=   1 TIMESTEP=   12 LAYER=   1 ZONE=   3 ACTIVE CELLS=   10 NUMBER OF EQUATIONS=      10
 
 HEAD/DRAWDOWN PRINTOUT FLAG = 1     TOTAL BUDGET PRINTOUT FLAG = 0
 CELL-BY-CELL FLOW TERM FLAG = 1

 OUTPUT FLAGS FOR ALL LAYERS ARE THE SAME:
   HEAD    DRAWDOWN  HEAD  DRAWDOWN
 PRINTOUT  PRINTOUT  SAVE    SAVE
 ----------------------------------
     0         0       0       0
 SOLVING FOR ZETA FOR LAYER     1 ZONE     2
 STRESS PERIOD=   1 TIMESTEP=  994 LAYER=   1 ZONE=   2 ACTIVE CELLS=   48 NUMBER OF EQUATIONS=      48
 SOLVING FOR ZETA FOR LAYER     1 ZONE     3
 STRESS PERIOD=   1 TIMESTEP=  994 LAYER=   1 ZONE=   3 ACTIVE CELLS=   48 NUMBER OF EQUATIONS=      48
 
 SOLVING FOR HEAD 

 HEAD/DRAWDOWN PRINTOUT FLAG = 1     TOTAL BUDGET PRINTOUT FLAG = 0
 CELL-BY-CELL FLOW TERM FLAG = 1

 OUTPUT FLAGS FOR ALL LAYERS ARE THE SAME:
   HEAD    DRAWDOWN  HEAD  DRAWDOWN
 PRINTOUT  PRINTOUT  SAVE    SAVE
 ----------------------------------
     0         0       0       0
 SOLVING FOR ZETA FOR LAYER     1 ZONE     2
 STRESS PERIOD=   1 TIMESTEP=  995 LAYER=   1 ZONE=   2 ACTIVE CELLS=   48 NUMBER OF EQUATIONS=      48
 SOLVING FOR ZETA FOR LAYER     1 ZONE     3
 STRESS PERIOD=   1 TIMESTEP=  995 LAYER=   1 ZONE=   3 ACTIVE CELLS=   48 NUMBER OF EQUATIONS=      48
 
 SOLVING FOR HEAD 

 HEAD/DRAWDOWN PRINTOUT FLAG = 1     TOTAL BUDGET PRINTOUT FLAG = 0
 CELL-BY-CELL FLOW TERM FLAG = 1

 OUTPUT FLAGS FOR ALL LAYERS ARE THE SAME:
   HEAD    DRAWDOWN  HEAD  DRAWDOWN
 PRINTOUT  PRINTOUT  SAVE    SAVE
 ----------------------------------
     0         0       0       0
 SOLVING FOR ZETA FOR LAYER     1 ZONE     2
 STRESS PERIOD=   1 TIMESTEP=  996 LAYER=   1 ZONE=   2 ACTIVE CELLS=   48 NUMBER OF EQUATIONS=      48
 SOLVING FOR ZETA FOR LAYER     1 ZONE     3
 STRESS PERIOD=   1 TIMESTEP=  996 LAYER=   1 ZONE=   3 ACTIVE CELLS=   48 NUMBER OF EQUATIONS=      48
 
 SOLVING FOR HEAD 

 HEAD/DRAWDOWN PRINTOUT FLAG = 1     TOTAL BUDGET PRINTOUT FLAG = 0
 CELL-BY-CELL FLOW TERM FLAG = 1

 OUTPUT FLAGS FOR ALL LAYERS ARE THE SAME:
   HEAD    DRAWDOWN  HEAD  DRAWDOWN
 PRINTOUT  PRINTOUT  SAVE    SAVE
 ----------------------------------
     0         0       0       0
 SOLVING FOR ZETA FOR LAYER     1 ZONE     2
 STRESS PERIOD=   1 TIMESTEP=  997 LAYER=   1 ZONE=   2 ACTIVE CELLS=   48 NUMBER OF EQUATIONS=      48
 SOLVING FOR ZETA FOR LAYER     1 ZONE     3
 STRESS PERIOD=   1 TIMESTEP=  997 LAYER=   1 ZONE=   3 ACTIVE CELLS=   48 NUMBER OF EQUATIONS=      48
 
 SOLVING FOR HEAD 

 HEAD/DRAWDOWN PRINTOUT FLAG = 1     TOTAL BUDGET PRINTOUT FLAG = 0
 CELL-BY-CELL FLOW TERM FLAG = 1

 OUTPUT FLAGS FOR ALL LAYERS ARE THE SAME:
   HEAD    DRAWDOWN  HEAD  DRAWDOWN
 PRINTOUT  PRINTOUT  SAVE    SAVE
 ----------------------------------
     0         0       0       0
 SOLVING FOR ZETA FOR LAYER     1 ZONE     2
 STRESS PERIOD=   1 TIMESTEP=  998 LAYER=   1 ZONE=   2 ACTIVE CELLS=   48 NUMBER OF EQUATIONS=      48
 SOLVING FOR ZETA FOR LAYER     1 ZONE     3
 STRESS PERIOD=   1 TIMESTEP=  998 LAYER=   1 ZONE=   3 ACTIVE CELLS=   48 NUMBER OF EQUATIONS=      48
 
 SOLVING FOR HEAD 

 HEAD/DRAWDOWN PRINTOUT FLAG = 1     TOTAL BUDGET PRINTOUT FLAG = 0
 CELL-BY-CELL FLOW TERM FLAG = 1

 OUTPUT FLAGS FOR ALL LAYERS ARE THE SAME:
   HEAD    DRAWDOWN  HEAD  DRAWDOWN
 PRINTOUT  PRINTOUT  SAVE    SAVE
 ----------------------------------
     0         0       0       0
 SOLVING FOR ZETA FOR LAYER     1 ZONE     2
 STRESS PERIOD=   1 TIMESTEP=  999 LAYER=   1 ZONE=   2 ACTIVE CELLS=   48 NUMBER OF EQUATIONS=      48
 SOLVING FOR ZETA FOR LAYER     1 ZONE     3
 STRESS PERIOD=   1 TIMESTEP=  999 LAYER=   1 ZONE=   3 ACTIVE CELLS=   48 NUMBER OF EQUATIONS=      48
 
 SOLVING FOR HEAD 

 HEAD/DRAWDOWN PRINTOUT FLAG = 1     TOTAL BUDGET PRINTOUT FLAG = 0
 CELL-BY-CELL FLOW TERM FLAG = 1

 OUTPUT FLAGS FOR ALL LAYERS ARE THE SAME:
   HEAD    DRAWDOWN  HEAD  DRAWDOWN
 PRINTOUT  PRINTOUT  SAVE    SAVE
 ----------------------------------
     0         0       1       0
 SOLVING FOR ZETA FOR LAYER     1 ZONE     2
 STRESS PERIOD=   1 TIMESTEP= 1000 LAYER=   1 ZONE=   2 ACTIVE CELLS=   48 NUMBER OF EQUATIONS=      48
 SOLVING FOR ZETA FOR LAYER     1 ZONE     3
 STRESS PERIOD=   1 TIMESTEP= 1000 LAYER=   1 ZONE=   3 ACTIVE CELLS=   48 NUMBER OF EQUATIONS=      48
 UBUDSV SAVING "      ZETASRF  1" ON UNIT 55 AT TIME STEP 1000, STRESS PERIOD 1
 UBUDSV SAVING "      ZETASRF  2" ON UNIT 55 AT TIME STEP 1000, STRESS PERIOD 1


                      VOLUMETRIC SWI ZONE BUDGET FOR ENTIRE MODEL
                     AT END OF TIME STEP 1000 IN STRESS PERIOD   1
                                      ZONE     1
  -----------------------------------------------------------------------------------

        CUMULATIVE VOLUMES      L**3       RATES FOR THIS TIME STEP      L**3/T
        ------------------                 ------------------------

              IN:                                      IN:
              ---                                      ---
             BOUNDARIES =           0.0000            BOUNDARIES =           0.0000
          CONSTANT HEAD =           0.0000         CONSTANT HEAD =           0.0000
            ZONE CHANGE =         191.7587           ZONE CHANGE =       6.4505E-02
       ZONE CHG TIP/TOE =           2.0000      ZONE CHG TIP/TOE =           0.0000
            ZONE MIXING =           0.0000           ZONE MIXING =           0.0000

               TOTAL IN =         193.7587              TOTAL IN =       6.4505E-02

             OUT:                                     OUT:
             ----                                     ----
             BOUNDARIES =           0.0000            BOUNDARIES =           0.0000
          CONSTANT HEAD =           0.0000         CONSTANT HEAD =           0.0000
            ZONE CHANGE =         191.7587           ZONE CHANGE =       6.4505E-02
       ZONE CHG TIP/TOE =           2.0000      ZONE CHG TIP/TOE =           0.0000
            ZONE MIXING =           0.0000           ZONE MIXING =           0.0000

              TOTAL OUT =         193.7587             TOTAL OUT =       6.4505E-02

               IN - OUT =       3.4106E-13              IN - OUT =      -2.1927E-14

    PERCENT DISCREPANCY =           0.00     PERCENT DISCREPANCY =          -0.00



                      VOLUMETRIC SWI ZONE BUDGET FOR ENTIRE MODEL
                     AT END OF TIME STEP 1000 IN STRESS PERIOD   1
                                      ZONE     2
  -----------------------------------------------------------------------------------

        CUMULATIVE VOLUMES      L**3       RATES FOR THIS TIME STEP      L**3/T
        ------------------                 ------------------------

              IN:                                      IN:
              ---                                      ---
             BOUNDARIES =           0.0000            BOUNDARIES =           0.0000
          CONSTANT HEAD =           0.0000         CONSTANT HEAD =           0.0000
            ZONE CHANGE =         227.6270           ZONE CHANGE =       3.6062E-02
       ZONE CHG TIP/TOE =           3.9000      ZONE CHG TIP/TOE =           0.0000
            ZONE MIXING =           0.0000           ZONE MIXING =           0.0000

               TOTAL IN =         231.5270              TOTAL IN =       3.6062E-02

             OUT:                                     OUT:
             ----                                     ----
             BOUNDARIES =           0.0000            BOUNDARIES =           0.0000
          CONSTANT HEAD =           0.0000         CONSTANT HEAD =           0.0000
            ZONE CHANGE =         227.6270           ZONE CHANGE =       3.6062E-02
       ZONE CHG TIP/TOE =           3.9000      ZONE CHG TIP/TOE =           0.0000
            ZONE MIXING =           0.0000           ZONE MIXING =           0.0000

              TOTAL OUT =         231.5270             TOTAL OUT =       3.6062E-02

               IN - OUT =      -2.8422E-13              IN - OUT =       1.8319E-14

    PERCENT DISCREPANCY =          -0.00     PERCENT DISCREPANCY =           0.00



                      VOLUMETRIC SWI ZONE BUDGET FOR ENTIRE MODEL
                     AT END OF TIME STEP 1000 IN STRESS PERIOD   1
                                      ZONE     3
  -----------------------------------------------------------------------------------

        CUMULATIVE VOLUMES      L**3       RATES FOR THIS TIME STEP      L**3/T
        ------------------                 ------------------------

              IN:                                      IN:
              ---                                      ---
             BOUNDARIES =           0.0000            BOUNDARIES =           0.0000
          CONSTANT HEAD =       8.4377E-15         CONSTANT HEAD =           0.0000
            ZONE CHANGE =         191.6666           ZONE CHANGE =       6.4533E-02
       ZONE CHG TIP/TOE =           2.0000      ZONE CHG TIP/TOE =           0.0000
            ZONE MIXING =           0.0000           ZONE MIXING =           0.0000

               TOTAL IN =         193.6666              TOTAL IN =       6.4533E-02

             OUT:                                     OUT:
             ----                                     ----
             BOUNDARIES =           0.0000            BOUNDARIES =           0.0000
          CONSTANT HEAD =       8.6597E-15         CONSTANT HEAD =           0.0000
            ZONE CHANGE =         191.6666           ZONE CHANGE =       6.4533E-02
       ZONE CHG TIP/TOE =           2.0000      ZONE CHG TIP/TOE =           0.0000
            ZONE MIXING =           0.0000           ZONE MIXING =           0.0000

              TOTAL OUT =         193.6666             TOTAL OUT =       6.4533E-02

               IN - OUT =      -8.8107E-13              IN - OUT =       1.6376E-15

    PERCENT DISCREPANCY =          -0.00     PERCENT DISCREPANCY =           0.00


 HEAD WILL BE SAVED ON UNIT   51 AT END OF TIME STEP  1000 IN STRESS PERIOD      1



  -------------------------------------------------------------------------------------
  VOLUMETRIC BUDGET FOR ENTIRE MODEL AT END OF TIME STEP 1000 IN STRESS PERIOD      1
  -------------------------------------------------------------------------------------

     CUMULATIVE VOLUMES      L**3       RATES FOR THIS TIME STEP      L**3/T
     ------------------                 ------------------------

           IN:                                      IN:
           ---                                      ---
             STORAGE =           0.0000               STORAGE =           0.0000
       CONSTANT HEAD =       8.4377E-15         CONSTANT HEAD =           0.0000
          SWIADDTOCH =           0.0000            SWIADDTOCH =           0.0000

            TOTAL IN =       8.4377E-15              TOTAL IN =           0.0000

          OUT:                                     OUT:
          ----                                     ----
             STORAGE =           0.0000               STORAGE =           0.0000
       CONSTANT HEAD =       8.6597E-15         CONSTANT HEAD =           0.0000
          SWIADDTOCH =           0.0000            SWIADDTOCH =           0.0000

           TOTAL OUT =       8.6597E-15             TOTAL OUT =           0.0000

            IN - OUT =      -2.2204E-16              IN - OUT =           0.0000

 PERCENT DISCREPANCY =          -0.00     PERCENT DISCREPANCY =           0.00


          TIME SUMMARY AT END OF TIME STEP  1000 IN STRESS PERIOD      1
                    SECONDS     MINUTES      HOURS       DAYS        YEARS
                    -----------------------------------------------------------
   TIME STEP LENGTH 1.72800E+05  2880.0      48.000      2.0000     5.47570E-03
 STRESS PERIOD TIME 1.72800E+08 2.88000E+06  48000.      2000.0      5.4757    
         TOTAL TIME 1.72800E+08 2.88000E+06  48000.      2000.0      5.4757    
 

 Final Remark:

   The solver successfully met the user supplied convergence criteria, HCLOSE and RCLOSE, for all 1000 time steps.

   Please check the "VOLUMETRIC BUDGET FOR ENTIRE MODEL" to ensure that mass rate balance errors are acceptable for all time steps.

   The cumulative mass error for the entire simulation is 0.00 %




 Simulation finished at  


 Which had an elapsed run time of: 0.0 seconds


    OneWater Simulation Now Complete


