💧🧙💦🌊  <-These symbols help text editors identify file as Unicode UTF8.
                    UTF8 is not necessary to view numerical results, but no UTF8 support can have artifacts where non-ascii symbols are used (such as the degree symbol).


MODFLOW-OWHM v2.2.0

      MMMMMMM                                       MM      MMM     MM
    MMM     MMM    MM      M   MMMMMMMM             LM     DM M     ML     MM     MMMMMMMMM  MMMMMMMM  MMMMMMMM
   MM         MM   MMM     M   MM                    MM    MM M     M     MMMM        M      M         MM     NM
   MM         MM   MM M    M   MM                    MM    M  MM   MM    MM  MM       M      M         MM      M
   MM         MM   MM  M   M   MMMMMMMM               MN  MM   M   MM   MM    MM      M      MMMMMMM   MMMMMMMMM
   MM         MM   MM   M  M   MM         MMMMMMM     MM  M    MM MM    MMMMMMMM      M      M         MM   MM
   MM         MM   MM    M M   MM                     LM MM    NM MM   MM      MM     M      M         MM    MM
    MM       NM    MM     MM   MM                      M M      M M   MN        MM    M      M         MM     MM
     MMMMMMMMN     MM      M   MMMMMMMM                7MM      7MM  MN          MM   M      MMMMMMMM  MM      MM


                        MODFLOW
            ONE-WATER HYDROLOGIC-FLOW MODEL

    U.S. Geological Survey Modular Finite-Difference
           Conjunctive Use Simulation Program

                      Version 2.2

 Release: 0

 Includes the following base versions with enhancements:

          MODFLOW-2005 Version 1.12
          MODFLOW-FMP  Version 4.1
          MODFLOW-SWR  Version 1.04
          MODFLOW-SWI  Version 2.0
          MODFLOW-LGR  Version 2.0
          MODFLOW-NWT  Version 1.2
          MODFLOW-CFP  Version 1.09.57
                  SWO  Version 1.0

------------------------------------------------------------------------------------
USGS Software Disclaimer:                                                          |
                                                                                   |
   No warranty, expressed or implied, is made by the USGS or the U.S. Government   |
   as to the functionality of the software and related material nor shall the      |
   fact of release constitute any such warranty.                                   |
                                                                                   |
   The software is provided on the condition that neither the USGS nor             |
   the U.S. Government shall be held liable for any damages resulting from the     |
   authorized or unauthorized use of the software.                                 |
                                                                                   |
   Newer versions may be present at the official code and download repository:     |
      https://code.usgs.gov/modflow/mf-owhm                                        |
                                                                                   |
------------------------------------------------------------------------------------

∙∙∙∙∙∙∙∙∙∙∙∙∙∙∙∙∙∙∙∙∙∙∙∙∙∙∙∙∙∙∙∙∙∙∙∙∙∙∙∙∙∙∙∙∙∙∙∙∙∙∙∙∙∙∙∙∙∙∙∙∙∙
    OneWater Simulation Initiated at  
∙∙∙∙∙∙∙∙∙∙∙∙∙∙∙∙∙∙∙∙∙∙∙∙∙∙∙∙∙∙∙∙∙∙∙∙∙∙∙∙∙∙∙∙∙∙∙∙∙∙∙∙∙∙∙∙∙∙∙∙∙∙


 LIST FILE: ./output/swi2ex2_strat.list
      UNIT: 2

OPENING DATA FILES [DATA AND DATA(BINARY)]

OPENED DATA FILE ON UNIT     55 WITH FILENAME OF: ./output/swi2ex2_strat.zta
OPENED DATA FILE ON UNIT     56 WITH FILENAME OF: ./output/swi2ex2_strat.swb
OPENED DATA FILE ON UNIT     51 WITH FILENAME OF: ./output/swi2ex2_strat.hds
OPENED DATA FILE ON UNIT     52 WITH FILENAME OF: ./output/swi2ex2_strat.ddn
OPENED DATA FILE ON UNIT     53 WITH FILENAME OF: ./output/swi2ex2_strat.cbc

OPENING PACKAGES

DIS  PACKAGE OPENED.
BAS6 PACKAGE OPENED.
BCF  PACKAGE OPENED.
SWI  PACKAGE OPENED.
PCG  PACKAGE OPENED.
OC   PACKAGE OPENED.

NOTIFICATION: A FILE UNIT NUMBER WAS FOUND FOR EITHER THE LIST FILE OR A PACAKGE.
IT WILL BE USED EVEN THOUGH UNIT NUMBERS FOR THE LIST FILE AND PACKAGES ARE NOW OPTIONAL.
[IT IS RECOMMENDED TO STILL USE A UNIT NUMBER FOR DATA and DATA(BINARY) ]


 BAS -- BASIC PACKAGE, VERSION OWHM INPUT READ FROM UNIT    13
 
MODFLOW was compiled using uniform precision (Precision => Number of meaningful digits in numbers)
Precision of REAL and DOUBLE PRECISION variables: 15

 DISCRETIZATION INPUT DATA READ FROM UNIT   11

-- READING DIS PACKAGE INPUT --

# swi2ex2_strat
# MODFLOW-SWI Example problem documented in:
#   Bakker, M., Schaars, F., Hughes, J.D., Langevin, C.D., Dausman, A.M., 2013, Documentation of the seawater intrusion (SWI2) package for MODFLOW: U.S. Geological Survey Techniques and Methods 6-A46, 47 p.
#
#      -Comments are preceded by a # sign
#
#-----------------------------------------------------------------------------------------------------------------------------------------------------
# DIS


*** DIS COORDINATE SYSTEM NOT SEPECIFIED ***
DEFAULT VALUES APPLIED ARE 0° ROTATION
WITH THE ORIGIN (0,0) LOCATED AT THE MODEL'S LOWER LEFT CORNER




DIS COORDINATE SYSTEM SEPECIFIED WITH:
GRID ROTATION OF 0.0°
WITH THE ORIGIN LOCATED AT THE OUTER MOST CORNER OF MODEL CELL [1,1] WITH:
X-COORDINATE:0.0
Y-COORDINATE:0.0
    1 LAYERS         1 ROWS        60 COLUMNS
      1 STRESS PERIOD(S) IN SIMULATION
 MODEL TIME UNIT IS DAYS
 MODEL LENGTH UNIT IS METERS
  Confining bed flag for each layer:
   0
         0  5.000e+00           (5G13.0)         -1                # DELR(NCOL)                                                                                                                                                                                                                                                                                                                                                                                                                                                                                                                                                                                                                                                                                                                  

                     DELR =   5.00000    
         0  1.000e+00           (5G13.0)         -1                # DELC(NROW)                                                                                                                                                                                                                                                                                                                                                                                                                                                                                                                                                                                                                                                                                                                  

                     DELC =   1.00000    



           TOP ELEVATION OF LAYER 1
 READING ON UNIT   11 WITH FORMAT:            (5G13.0) 



             MODEL LAYER BOTTOM EL. FOR LAYER   1
 READING ON UNIT   11 WITH FORMAT:            (5G13.0) 


 STRESS PERIOD     LENGTH       TIME STEPS     MULTIPLIER FOR DELT    SS FLAG  (OPTIONAL TIME STEP LENGTH)
 ---------------------------------------------------------------------------------------------------
        1         2000.000       1000                  1.00000         SS

 STEADY-STATE SIMULATION




-- READING BAS PACKAGE INPUT --

# swi2ex2_strat
# MODFLOW-SWI Example problem documented in:
#   Bakker, M., Schaars, F., Hughes, J.D., Langevin, C.D., Dausman, A.M., 2013, Documentation of the seawater intrusion (SWI2) package for MODFLOW: U.S. Geological Survey Techniques and Methods 6-A46, 47 p.
#
# Input modified for MODFLOW-OWHM by adding a BAS OPTIONS BLOCK with output options.
#
#-----------------------------------------------------------------------------------------------------------------------------------------------------
# Basic package


 THE BAS PACKAGE NOW DEFAULTS TO FREE FORMAT.
 USE OPTION "NOFREE" TO DISABLE FREE FORMAT.

 NOW READING BAS OPTIONS

 Found Option: NOCBC
                 No Cell-By-Cell (CBC) flows are written for simulation.

 Found Option: BUDGETDB

 Found Option: PRINT_HEAD
                 NPER       ./output/swi2ex2_strat_Head.txt

 Found Option: CUMULATIVE_HEAD_CHANGE
                 Cumulative sum of absolute head differences for the entire model.
                 This is a diagnostic feature meant for comparing MF-OWHM code versions with the same model input (software unit test).


 Setting up PRINT_HEAD option for 
    SP    TS   FILE
     1  1000   ./output/swi2ex2_strat_Head.txt

 The total simulation limit for the number PARAMETERs defined is: 
     Max number of PARAMETERs (MXPAR)  is       2000
     Max number of INSTANCEs  (MXINST) is      50000
     Max number of CLUSTERs   (MXCLST) is    2000000




                     BOUNDARY ARRAY FOR LAYER   1
 READING ON UNIT   13 WITH FORMAT:               (5I4) 

 AQUIFER HEAD WILL BE SET TO -999.99 AT ALL NO-FLOW NODES (IBOUND=0).




                       INITIAL HEAD FOR LAYER   1
 READING ON UNIT   13 WITH FORMAT:            (5G13.0) 

-- READING OC PACKAGE INPUT --

# swi2ex2_strat
# MODFLOW-SWI Example problem documented in:
#   Bakker, M., Schaars, F., Hughes, J.D., Langevin, C.D., Dausman, A.M., 2013, Documentation of the seawater intrusion (SWI2) package for MODFLOW: U.S. Geological Survey Techniques and Methods 6-A46, 47 p.
#
#      -Comments are preceded by a # sign
#
#-----------------------------------------------------------------------------------------------------------------------------------------------------
# OC


 OUTPUT CONTROL IS SPECIFIED EVERY TIME STEP
 HEAD PRINT FORMAT CODE IS   0    DRAWDOWN PRINT FORMAT CODE IS   0
 HEADS WILL BE SAVED ON UNIT   51    DRAWDOWNS WILL BE SAVED ON UNIT   52

 BCF -- BLOCK-CENTERED FLOW PACKAGE, VERSION 7, 5/2/2005
         INPUT READ FROM UNIT 15

-- READING BCF PACKAGE INPUT --

# swi2ex2_strat
# MODFLOW-SWI Example problem documented in:
#   Bakker, M., Schaars, F., Hughes, J.D., Langevin, C.D., Dausman, A.M., 2013, Documentation of the seawater intrusion (SWI2) package for MODFLOW: U.S. Geological Survey Techniques and Methods 6-A46, 47 p.
#
#      -Comments are preceded by a # sign
#
#-----------------------------------------------------------------------------------------------------------------------------------------------------

 STEADY-STATE SIMULATION
 HEAD AT CELLS THAT CONVERT TO DRY= -0.10000E+31
 WETTING CAPABILITY IS NOT ACTIVE
      LAYER  LAYER-TYPE CODE     INTERBLOCK T
      --------------------------------------------
         1            0          0 -- HARMONIC    
         15         1           (5G13.0)         -1 # TRPY(): Anisotropy factor of layers                                                                                                                                                                                                                                                                                                                                                                                                                                                                                                                                                                                                                                                                                                        



           COLUMN TO ROW ANISOTROPY
 READING ON UNIT   15 WITH FORMAT:            (5G13.0) 



               TRANSMIS. ALONG ROWS FOR LAYER   1
 READING ON UNIT   15 WITH FORMAT:           (60G13.0) 

 PCG -- CONJUGATE-GRADIENT SOLUTION PACKAGE, VERSION OWHM

-- READING PCG PACKAGE INPUT --

# swi2ex2_strat
# MODFLOW-SWI Example problem documented in:
#   Bakker, M., Schaars, F., Hughes, J.D., Langevin, C.D., Dausman, A.M., 2013, Documentation of the seawater intrusion (SWI2) package for MODFLOW: U.S. Geological Survey Techniques and Methods 6-A46, 47 p.
#
#-----------------------------------------------------------------------------------------------------------------------------------------------------
# PCG

 MAXIMUM OF    100 CALLS OF SOLUTION ROUTINE
 MAXIMUM OF     50 INTERNAL ITERATIONS PER CALL TO SOLUTION ROUTINE
 MATRIX PRECONDITIONING TYPE :    1



                                    SOLUTION BY THE CONJUGATE-GRADIENT METHOD
                                   -------------------------------------------
                    MAXIMUM NUMBER OF CALLS TO PCG ROUTINE =      100
                        MAXIMUM ITERATIONS PER CALL TO PCG =       50
                               MATRIX PRECONDITIONING TYPE =        1
        RELAXATION FACTOR (ONLY USED WITH PRECOND. TYPE 1) =    0.10000E+01
 PARAMETER OF POLYNOMIAL PRECOND. = 2 (2) OR IS CALCULATED :        0
                         HEAD CHANGE CRITERION FOR CLOSURE =    0.10000E-03
                     RESIDUAL CHANGE CRITERION FOR CLOSURE =    0.10000E-03
            PCG HEAD AND RESIDUAL CHANGE PRINTOUT INTERVAL =      999
     PRINTING FROM SOLVER IS LIMITED(1) OR SUPPRESSED (>1) =        3
                            STEADY-STATE DAMPING PARAMETER =    0.10000E+01
                               TRANSIENT DAMPING PARAMETER =    0.10000E+01

-- READING SWI PACKAGE INPUT --

# swi2ex2_strat
# MODFLOW-SWI Example problem documented in:
#   Bakker, M., Schaars, F., Hughes, J.D., Langevin, C.D., Dausman, A.M., 2013, Documentation of the seawater intrusion (SWI2) package for MODFLOW: U.S. Geological Survey Techniques and Methods 6-A46, 47 p.
#
#      -Comments are preceded by a # sign
#
#-----------------------------------------------------------------------------------------------------------------------------------------------------
# Salt Water Intrusion
#--Dataset 1



 SWI2 -- SWI PACKAGE, VERSION OWHM
 --------------------------------------------------
 SWI2 INPUT READ FROM UNIT 29




 SWI2 DATASET 1
 ----------------------------------------------------
 NUMBER OF SURFACES (NSRF):                         2
 TOTAL NUMBER OF ZONES:                             3
 DENSITY DISTRIBUTION OPTION (ISTRAT):              1
   VARIABLE DENSITY FLOW -- ISTRAT = 0
   STRATIFIED FLOW       -- ISTRAT = 1
 NUMBER OF SWI OBSERVATIONS (NOBS):                 0
 ZETA OUTPUT FILE UNIT NUMBER (ISWIZT):            55
 BUDGET OUTPUT FILE UNIT NUMBER (ISWICB):           0
 OBSERVATION OUTPUT FILE UNIT NUMBER (ISWIOBS):     0
 ----------------------------------------------------


 SWI2 DATASET 2A
 ----------------------------------------------------
 SOLVER (NSOLVER):                                  1
   SOLVER =                      DIRECT SOLVER (DE4)
 SOLVER PRINTOUT INTERVAL (IPRSOL):               999
 SOLVER OUTPUT FLAG (MUTSOL):                       3
   0 = PRINTING EVERY ITERATION
   1 = LIMITED (TOTAL NUMBER OF ITERATIONS)
   2 = NO PRINTING
   3 = ONLY IF CONVERGENCE FAILS
 ----------------------------------------------------


 SWI2 DATASET 3A
 ----------------------------------------------------
 MAXIMUM TOE SURFACE SLOPE (TOESLOPE):      0.200    
 MAXIMUM TIP SURFACE SLOPE (TIPSLOPE):      0.200    
 EXCESS SURFACE SLOPE FRACTION (ALPHA):     0.100    
 MINIMUM ZONE THICKNESS FRACTION (BETA):    0.100    
 ----------------------------------------------------
         29         1          (20G13.0)         -1                                                                                                                                                                                                                                                                                                                                                                                                                                                                                                                                                                                                                                                                                                                                              



                             NUZONE
 READING ON UNIT   29 WITH FORMAT:           (20G13.0) 



                   ZETA SURFACE  1  FOR LAYER   1
 READING ON UNIT   29 WITH FORMAT:           (60G13.0) 



                   ZETA SURFACE  2  FOR LAYER   1
 READING ON UNIT   29 WITH FORMAT:           (60G13.0) 

                      SSZ =  0.200000     FOR LAYER   1



                            IZONENR FOR LAYER   1
 READING ON UNIT   29 WITH FORMAT:             (60I13) 


########################################################################################################

                           WARNING_MESSAGE

         THE FOLLOWING COMMENTS WERE PASSED TO THE WARNING ROUTINE

THE DESCRIPTION OF THE WARNING IS:

DIS PACKAGE: THE GROUND SURFACE ELEVATION WAS NOT SPECIFIED WITH THE KEYWORD "SURFACE_ELEVATION"

BEFORE LOADING THE "TOP" ARRAY FOR LAYER 1
NOR WAS IT DEFINED WITH ANOTHER PACKAGE   (e.g. FMPs GLOBAL DIMENSION KEYWORD "SURFACE_ELEVATION")

OneWater WILL SET THE GROUND SURFACE ELEVATION (GSE)
TO THE TOP ELEVATION OF THE UPPER MOST ACTIVE CELL OR THE DIS TOP OF LAY1.

NOTE THAT SFR DOES USE GSE FOR ALL DIVERSION SEGMENTS
   WHEN "IRDFLG" IS SET TO 2 or -2.

########################################################################################################



1
                            STRESS PERIOD NO.      1, LENGTH =   2000.000    
                            -----------------------------------------------

                              NUMBER OF TIME STEPS =  1000

                               MULTIPLIER FOR DELT =     1.000

                            INITIAL TIME STEP SIZE =   2.000000    

PARAMETERS HAVE BEEN USED IN PACKAGES

THE CURRENT STORAGE FOR PARAMETERS IS: 
No. PARAMETER=         0 WITH MAX STORAGE (MXPAR)  OF      2000
No. CLUSTERS =         0 WITH MAX STORAGE (MXCLST) OF   2000000
No. INSTANCES=         0 WITH MAX STORAGE (MXINST) OF     50000

YOU CAN INCREASE/DECREASE STORAGE WITH BAS OPTION:
MAXPARAM  MXPAR  MXCLST MXINST

FYI, YOU CAN REDUCE RAM USUAGE WITH BAS OPTION
(NOTE THE THREE NUMBERS ARE A MINUMUM SIZE):
   MAXPARAM          1         1         1

 
 SOLVING FOR HEAD 


Solver Convergence Information:
                              HClose:  5.5511151E-17
                              RClose:  1.7763568E-15
                           L2-RClose:  1.9860273E-15
                         Rel-Vol-Err:  0.0
 

 HEAD/DRAWDOWN PRINTOUT FLAG = 1     TOTAL BUDGET PRINTOUT FLAG = 0
 CELL-BY-CELL FLOW TERM FLAG = 1

 OUTPUT FLAGS FOR ALL LAYERS ARE THE SAME:
   HEAD    DRAWDOWN  HEAD  DRAWDOWN
 PRINTOUT  PRINTOUT  SAVE    SAVE
 ----------------------------------
     0         0       0       0
 SOLVING FOR ZETA FOR LAYER     1 ZONE     2

       4 UPPER PART EQS.         4 LOWER PART EQS.    BAND WIDTH + 1 =      2
 STRESS PERIOD=   1 TIMESTEP=    1 LAYER=   1 ZONE=   2 ACTIVE CELLS=    8 NUMBER OF EQUATIONS=       8
 SOLVING FOR ZETA FOR LAYER     1 ZONE     3
 STRESS PERIOD=   1 TIMESTEP=    1 LAYER=   1 ZONE=   3 ACTIVE CELLS=    8 NUMBER OF EQUATIONS=       8
 
 SOLVING FOR HEAD 


Solver Convergence Information:
                              HClose:  3.3306691E-16
                              RClose:  1.7763568E-15
                           L2-RClose:  2.0106994E-15
                         Rel-Vol-Err:  0.0
 

 HEAD/DRAWDOWN PRINTOUT FLAG = 1     TOTAL BUDGET PRINTOUT FLAG = 0
 CELL-BY-CELL FLOW TERM FLAG = 1

 OUTPUT FLAGS FOR ALL LAYERS ARE THE SAME:
   HEAD    DRAWDOWN  HEAD  DRAWDOWN
 PRINTOUT  PRINTOUT  SAVE    SAVE
 ----------------------------------
     0         0       0       0
 SOLVING FOR ZETA FOR LAYER     1 ZONE     2

       5 UPPER PART EQS.         5 LOWER PART EQS.    BAND WIDTH + 1 =      2
 STRESS PERIOD=   1 TIMESTEP=    2 LAYER=   1 ZONE=   2 ACTIVE CELLS=   10 NUMBER OF EQUATIONS=      10
 SOLVING FOR ZETA FOR LAYER     1 ZONE     3
 STRESS PERIOD=   1 TIMESTEP=    2 LAYER=   1 ZONE=   3 ACTIVE CELLS=   10 NUMBER OF EQUATIONS=      10
 
 SOLVING FOR HEAD 


Solver Convergence Information:
                              HClose:  1.1102230E-16
                              RClose:  3.5527137E-15
                           L2-RClose:  5.9704817E-15
                         Rel-Vol-Err:  0.0
 

 HEAD/DRAWDOWN PRINTOUT FLAG = 1     TOTAL BUDGET PRINTOUT FLAG = 0
 CELL-BY-CELL FLOW TERM FLAG = 1

 OUTPUT FLAGS FOR ALL LAYERS ARE THE SAME:
   HEAD    DRAWDOWN  HEAD  DRAWDOWN
 PRINTOUT  PRINTOUT  SAVE    SAVE
 ----------------------------------
     0         0       0       0
 SOLVING FOR ZETA FOR LAYER     1 ZONE     2
 STRESS PERIOD=   1 TIMESTEP=    3 LAYER=   1 ZONE=   2 ACTIVE CELLS=   10 NUMBER OF EQUATIONS=      10
 SOLVING FOR ZETA FOR LAYER     1 ZONE     3
 STRESS PERIOD=   1 TIMESTEP=    3 LAYER=   1 ZONE=   3 ACTIVE CELLS=   10 NUMBER OF EQUATIONS=      10
 
 SOLVING FOR HEAD 


Solver Convergence Information:
                              HClose:  5.5511151E-17
                              RClose:  1.7763568E-15
                           L2-RClose:  2.9120877E-15
                         Rel-Vol-Err:  0.0
 

 HEAD/DRAWDOWN PRINTOUT FLAG = 1     TOTAL BUDGET PRINTOUT FLAG = 0
 CELL-BY-CELL FLOW TERM FLAG = 1

 OUTPUT FLAGS FOR ALL LAYERS ARE THE SAME:
   HEAD    DRAWDOWN  HEAD  DRAWDOWN
 PRINTOUT  PRINTOUT  SAVE    SAVE
 ----------------------------------
     0         0       0       0
 SOLVING FOR ZETA FOR LAYER     1 ZONE     2
 STRESS PERIOD=   1 TIMESTEP=    4 LAYER=   1 ZONE=   2 ACTIVE CELLS=   10 NUMBER OF EQUATIONS=      10
 SOLVING FOR ZETA FOR LAYER     1 ZONE     3
 STRESS PERIOD=   1 TIMESTEP=    4 LAYER=   1 ZONE=   3 ACTIVE CELLS=   10 NUMBER OF EQUATIONS=      10
 
 SOLVING FOR HEAD 


Solver Convergence Information:
                              HClose:  6.9388939E-18
                              RClose:  2.2204460E-16
                           L2-RClose:  4.9650683E-16
                         Rel-Vol-Err:  0.0
 

 HEAD/DRAWDOWN PRINTOUT FLAG = 1     TOTAL BUDGET PRINTOUT FLAG = 0
 CELL-BY-CELL FLOW TERM FLAG = 1

 OUTPUT FLAGS FOR ALL LAYERS ARE THE SAME:
   HEAD    DRAWDOWN  HEAD  DRAWDOWN
 PRINTOUT  PRINTOUT  SAVE    SAVE
 ----------------------------------
     0         0       0       0
 SOLVING FOR ZETA FOR LAYER     1 ZONE     2
 STRESS PERIOD=   1 TIMESTEP=    5 LAYER=   1 ZONE=   2 ACTIVE CELLS=   10 NUMBER OF EQUATIONS=      10
 SOLVING FOR ZETA FOR LAYER     1 ZONE     3
 STRESS PERIOD=   1 TIMESTEP=    5 LAYER=   1 ZONE=   3 ACTIVE CELLS=   10 NUMBER OF EQUATIONS=      10
 
 SOLVING FOR HEAD 


Solver Convergence Information:
                              HClose:  1.6653345E-16
                              RClose:  3.5527137E-15
                           L2-RClose:  5.4525403E-15
                         Rel-Vol-Err:  0.0
 

 HEAD/DRAWDOWN PRINTOUT FLAG = 1     TOTAL BUDGET PRINTOUT FLAG = 0
 CELL-BY-CELL FLOW TERM FLAG = 1

 OUTPUT FLAGS FOR ALL LAYERS ARE THE SAME:
   HEAD    DRAWDOWN  HEAD  DRAWDOWN
 PRINTOUT  PRINTOUT  SAVE    SAVE
 ----------------------------------
     0         0       0       0
 SOLVING FOR ZETA FOR LAYER     1 ZONE     2
 STRESS PERIOD=   1 TIMESTEP=    6 LAYER=   1 ZONE=   2 ACTIVE CELLS=   10 NUMBER OF EQUATIONS=      10
 SOLVING FOR ZETA FOR LAYER     1 ZONE     3
 STRESS PERIOD=   1 TIMESTEP=    6 LAYER=   1 ZONE=   3 ACTIVE CELLS=   10 NUMBER OF EQUATIONS=      10
 
 SOLVING FOR HEAD 


Solver Convergence Information:
                              HClose:  1.1102230E-16
                              RClose:  3.5527137E-15
                           L2-RClose:  4.4630413E-15
                         Rel-Vol-Err:  0.0
 

 HEAD/DRAWDOWN PRINTOUT FLAG = 1     TOTAL BUDGET PRINTOUT FLAG = 0
 CELL-BY-CELL FLOW TERM FLAG = 1

 OUTPUT FLAGS FOR ALL LAYERS ARE THE SAME:
   HEAD    DRAWDOWN  HEAD  DRAWDOWN
 PRINTOUT  PRINTOUT  SAVE    SAVE
 ----------------------------------
     0         0       0       0
 SOLVING FOR ZETA FOR LAYER     1 ZONE     2
 STRESS PERIOD=   1 TIMESTEP=    7 LAYER=   1 ZONE=   2 ACTIVE CELLS=   10 NUMBER OF EQUATIONS=      10
 SOLVING FOR ZETA FOR LAYER     1 ZONE     3
 STRESS PERIOD=   1 TIMESTEP=    7 LAYER=   1 ZONE=   3 ACTIVE CELLS=   10 NUMBER OF EQUATIONS=      10
 
 SOLVING FOR HEAD 


Solver Convergence Information:
                              HClose:  1.1102230E-16
                              RClose:  1.7763568E-15
                           L2-RClose:  3.3528000E-15
                         Rel-Vol-Err:  0.0
 

 HEAD/DRAWDOWN PRINTOUT FLAG = 1     TOTAL BUDGET PRINTOUT FLAG = 0
 CELL-BY-CELL FLOW TERM FLAG = 1

 OUTPUT FLAGS FOR ALL LAYERS ARE THE SAME:
   HEAD    DRAWDOWN  HEAD  DRAWDOWN
 PRINTOUT  PRINTOUT  SAVE    SAVE
 ----------------------------------
     0         0       0       0
 SOLVING FOR ZETA FOR LAYER     1 ZONE     2
 STRESS PERIOD=   1 TIMESTEP=    8 LAYER=   1 ZONE=   2 ACTIVE CELLS=   10 NUMBER OF EQUATIONS=      10
 SOLVING FOR ZETA FOR LAYER     1 ZONE     3
 STRESS PERIOD=   1 TIMESTEP=    8 LAYER=   1 ZONE=   3 ACTIVE CELLS=   10 NUMBER OF EQUATIONS=      10
 
 SOLVING FOR HEAD 


Solver Convergence Information:
                              HClose:  1.1102230E-16
                              RClose:  1.7763568E-15
                           L2-RClose:  1.7901808E-15
                         Rel-Vol-Err:  0.0
 

 HEAD/DRAWDOWN PRINTOUT FLAG = 1     TOTAL BUDGET PRINTOUT FLAG = 0
 CELL-BY-CELL FLOW TERM FLAG = 1

 OUTPUT FLAGS FOR ALL LAYERS ARE THE SAME:
   HEAD    DRAWDOWN  HEAD  DRAWDOWN
 PRINTOUT  PRINTOUT  SAVE    SAVE
 ----------------------------------
     0         0       0       0
 SOLVING FOR ZETA FOR LAYER     1 ZONE     2
 STRESS PERIOD=   1 TIMESTEP=    9 LAYER=   1 ZONE=   2 ACTIVE CELLS=   10 NUMBER OF EQUATIONS=      10
 SOLVING FOR ZETA FOR LAYER     1 ZONE     3
 STRESS PERIOD=   1 TIMESTEP=    9 LAYER=   1 ZONE=   3 ACTIVE CELLS=   10 NUMBER OF EQUATIONS=      10
 
 SOLVING FOR HEAD 


Solver Convergence Information:
                              HClose:  5.5511151E-17
                              RClose:  3.5527137E-15
                           L2-RClose:  6.1854469E-15
                         Rel-Vol-Err:  0.0
 

 HEAD/DRAWDOWN PRINTOUT FLAG = 1     TOTAL BUDGET PRINTOUT FLAG = 0
 CELL-BY-CELL FLOW TERM FLAG = 1

 OUTPUT FLAGS FOR ALL LAYERS ARE THE SAME:
   HEAD    DRAWDOWN  HEAD  DRAWDOWN
 PRINTOUT  PRINTOUT  SAVE    SAVE
 ----------------------------------
     0         0       0       0
 SOLVING FOR ZETA FOR LAYER     1 ZONE     2
 STRESS PERIOD=   1 TIMESTEP=   10 LAYER=   1 ZONE=   2 ACTIVE CELLS=   10 NUMBER OF EQUATIONS=      10
 SOLVING FOR ZETA FOR LAYER     1 ZONE     3
 STRESS PERIOD=   1 TIMESTEP=   10 LAYER=   1 ZONE=   3 ACTIVE CELLS=   10 NUMBER OF EQUATIONS=      10
 
 SOLVING FOR HEAD 


Solver Convergence Information:
                              HClose:  5.5511151E-17
                              RClose:  3.5527137E-15
                           L2-RClose:  5.7346002E-15
                         Rel-Vol-Err:  0.0
 

 HEAD/DRAWDOWN PRINTOUT FLAG = 1     TOTAL BUDGET PRINTOUT FLAG = 0
 CELL-BY-CELL FLOW TERM FLAG = 1

 OUTPUT FLAGS FOR ALL LAYERS ARE THE SAME:
   HEAD    DRAWDOWN  HEAD  DRAWDOWN
 PRINTOUT  PRINTOUT  SAVE    SAVE
 ----------------------------------
     0         0       0       0
 SOLVING FOR ZETA FOR LAYER     1 ZONE     2
 STRESS PERIOD=   1 TIMESTEP=   11 LAYER=   1 ZONE=   2 ACTIVE CELLS=   10 NUMBER OF EQUATIONS=      10
 SOLVING FOR ZETA FOR LAYER     1 ZONE     3
 STRESS PERIOD=   1 TIMESTEP=   11 LAYER=   1 ZONE=   3 ACTIVE CELLS=   10 NUMBER OF EQUATIONS=      10
 
 SOLVING FOR HEAD 


Solver Convergence Information:
                              HClose:  2.2204460E-16
                              RClose:  3.5527137E-15
                           L2-RClose:  5.2310241E-15
                         Rel-Vol-Err:  0.0
 

 HEAD/DRAWDOWN PRINTOUT FLAG = 1     TOTAL BUDGET PRINTOUT FLAG = 0
 CELL-BY-CELL FLOW TERM FLAG = 1

 OUTPUT FLAGS FOR ALL LAYERS ARE THE SAME:
   HEAD    DRAWDOWN  HEAD  DRAWDOWN
 PRINTOUT  PRINTOUT  SAVE    SAVE
 ----------------------------------
     0         0       0       0
 SOLVING FOR ZETA FOR LAYER     1 ZONE     2
 STRESS PERIOD=   1 TIMESTEP=   12 LAYER=   1 ZONE=   2 ACTIVE CELLS=   10 NUMBER OF EQUATIONS=      10
 SOLVING FOR ZETA FOR LAYER     1 ZONE     3
 STRESS PERIOD=   1 TIMESTEP=   12 LAYER=   1 ZONE=   3 ACTIVE CELLS=   10 NUMBER OF EQUATIONS=      10
 
 SOLVING FOR HEAD 


Solver Convergence Information:
                              HClose:  1.1102230E-16
                              RClose:  3.5527137E-15
                           L2-RClose:  5.3521502E-15
                         Rel-Vol-Err:  0.0
 

 HEAD/DRAWDOWN PRINTOUT FLAG = 1     TOTAL BUDGET PRINTOUT FLAG = 0
 CELL-BY-CELL FLOW TERM FLAG = 1

 OUTPUT FLAGS FOR ALL LAYERS ARE THE SAME:
   HEAD    DRAWDOWN  HEAD  DRAWDOWN
 PRINTOUT  PRINTOUT  SAVE    SAVE
 ----------------------------------
     0         0       0       0
 SOLVING FOR ZETA FOR LAYER     1 ZONE     2
 STRESS PERIOD=   1 TIMESTEP=   13 LAYER=   1 ZONE=   2 ACTIVE CELLS=   10 NUMBER OF EQUATIONS=      10
 SOLVING FOR ZETA FOR LAYER     1 ZONE     3
 STRESS PERIOD=   1 TIMESTEP=   13 LAYER=   1 ZONE=   3 ACTIVE CELLS=   10 NUMBER OF EQUATIONS=      10
 
 SOLVING FOR HEAD 


Solver Convergence Information:
                              HClose:  5.5511151E-17
                              RClose:  3.5527137E-15
                           L2-RClose:  4.8035593E-15
                         Rel-Vol-Err:  0.0
 

 HEAD/DRAWDOWN PRINTOUT FLAG = 1     TOTAL BUDGET PRINTOUT FLAG = 0
 CELL-BY-CELL FLOW TERM FLAG = 1

 OUTPUT FLAGS FOR ALL LAYERS ARE THE SAME:
   HEAD    DRAWDOWN  HEAD  DRAWDOWN
 PRINTOUT  PRINTOUT  SAVE    SAVE
 ----------------------------------
     0         0       0       0
 SOLVING FOR ZETA FOR LAYER     1 ZONE     2

       6 UPPER PART EQS.         5 LOWER PART EQS.    BAND WIDTH + 1 =      2
 STRESS PERIOD=   1 TIMESTEP=   14 LAYER=   1 ZONE=   2 ACTIVE CELLS=   11 NUMBER OF EQUATIONS=      11
 SOLVING FOR ZETA FOR LAYER     1 ZONE     3
 STRESS PERIOD=   1 TIMESTEP=   14 LAYER=   1 ZONE=   3 ACTIVE CELLS=   11 NUMBER OF EQUATIONS=      11
 
 SOLVING FOR HEAD 


Solver Convergence Information:
                              HClose:  5.5511151E-17
                              RClose:  3.5527137E-15
                           L2-RClose:  4.8342532E-15
                         Rel-Vol-Err:  0.0
 

 HEAD/DRAWDOWN PRINTOUT FLAG = 1     TOTAL BUDGET PRINTOUT FLAG = 0
 CELL-BY-CELL FLOW TERM FLAG = 1

 OUTPUT FLAGS FOR ALL LAYERS ARE THE SAME:
   HEAD    DRAWDOWN  HEAD  DRAWDOWN
 PRINTOUT  PRINTOUT  SAVE    SAVE
 ----------------------------------
     0         0       0       0
 SOLVING FOR ZETA FOR LAYER     1 ZONE     2
 STRESS PERIOD=   1 TIMESTEP=   15 LAYER=   1 ZONE=   2 ACTIVE CELLS=   11 NUMBER OF EQUATIONS=      11
 SOLVING FOR ZETA FOR LAYER     1 ZONE     3
 STRESS PERIOD=   1 TIMESTEP=   15 LAYER=   1 ZONE=   3 ACTIVE CELLS=   11 NUMBER OF EQUATIONS=      11
 
 SOLVING FOR HEAD 


Solver Convergence Information:
                              HClose:  1.1102230E-16
                              RClose:  4.4408921E-16
                           L2-RClose:  8.0059321E-16
                         Rel-Vol-Err:  0.0
 

 HEAD/DRAWDOWN PRINTOUT FLAG = 1     TOTAL BUDGET PRINTOUT FLAG = 0
 CELL-BY-CELL FLOW TERM FLAG = 1

 OUTPUT FLAGS FOR ALL LAYERS ARE THE SAME:
   HEAD    DRAWDOWN  HEAD  DRAWDOWN
 PRINTOUT  PRINTOUT  SAVE    SAVE
 ----------------------------------
     0         0       0       0
 SOLVING FOR ZETA FOR LAYER     1 ZONE     2

       6 UPPER PART EQS.         6 LOWER PART EQS.    BAND WIDTH + 1 =      2
 STRESS PERIOD=   1 TIMESTEP=   16 LAYER=   1 ZONE=   2 ACTIVE CELLS=   12 NUMBER OF EQUATIONS=      12
 SOLVING FOR ZETA FOR LAYER     1 ZONE     3
 STRESS PERIOD=   1 TIMESTEP=   16 LAYER=   1 ZONE=   3 ACTIVE CELLS=   12 NUMBER OF EQUATIONS=      12
 
 SOLVING FOR HEAD 


Solver Convergence Information:
                              HClose:  5.5511151E-17
                              RClose:  3.5527137E-15
                           L2-RClose:  5.9123937E-15
                         Rel-Vol-Err:  0.0
 

 HEAD/DRAWDOWN PRINTOUT FLAG = 1     TOTAL BUDGET PRINTOUT FLAG = 0
 CELL-BY-CELL FLOW TERM FLAG = 1

 OUTPUT FLAGS FOR ALL LAYERS ARE THE SAME:
   HEAD    DRAWDOWN  HEAD  DRAWDOWN
 PRINTOUT  PRINTOUT  SAVE    SAVE
 ----------------------------------
     0         0       0       0
 SOLVING FOR ZETA FOR LAYER     1 ZONE     2
 STRESS PERIOD=   1 TIMESTEP=   17 LAYER=   1 ZONE=   2 ACTIVE CELLS=   12 NUMBER OF EQUATIONS=      12
 SOLVING FOR ZETA FOR LAYER     1 ZONE     3
 STRESS PERIOD=   1 TIMESTEP=   17 LAYER=   1 ZONE=   3 ACTIVE CELLS=   12 NUMBER OF EQUATIONS=      12
 
 SOLVING FOR HEAD 


Solver Convergence Information:
                              HClose:  5.5511151E-17
                              RClose:  3.5527137E-15
                           L2-RClose:  4.0822404E-15
                         Rel-Vol-Err:  0.0
 

 HEAD/DRAWDOWN PRINTOUT FLAG = 1     TOTAL BUDGET PRINTOUT FLAG = 0
 CELL-BY-CELL FLOW TERM FLAG = 1

 OUTPUT FLAGS FOR ALL LAYERS ARE THE SAME:
   HEAD    DRAWDOWN  HEAD  DRAWDOWN
 PRINTOUT  PRINTOUT  SAVE    SAVE
 ----------------------------------
     0         0       0       0
 SOLVING FOR ZETA FOR LAYER     1 ZONE     2
 STRESS PERIOD=   1 TIMESTEP=   18 LAYER=   1 ZONE=   2 ACTIVE CELLS=   12 NUMBER OF EQUATIONS=      12
 SOLVING FOR ZETA FOR LAYER     1 ZONE     3
 STRESS PERIOD=   1 TIMESTEP=   18 LAYER=   1 ZONE=   3 ACTIVE CELLS=   12 NUMBER OF EQUATIONS=      12
 
 SOLVING FOR HEAD 


Solver Convergence Information:
                              HClose:  1.1102230E-16
                              RClose:  3.5527137E-15
                           L2-RClose:  5.9290483E-15
                         Rel-Vol-Err:  0.0
 

 HEAD/DRAWDOWN PRINTOUT FLAG = 1     TOTAL BUDGET PRINTOUT FLAG = 0
 CELL-BY-CELL FLOW TERM FLAG = 1

 OUTPUT FLAGS FOR ALL LAYERS ARE THE SAME:
   HEAD    DRAWDOWN  HEAD  DRAWDOWN
 PRINTOUT  PRINTOUT  SAVE    SAVE
 ----------------------------------
     0         0       0       0
 SOLVING FOR ZETA FOR LAYER     1 ZONE     2
 STRESS PERIOD=   1 TIMESTEP=   19 LAYER=   1 ZONE=   2 ACTIVE CELLS=   12 NUMBER OF EQUATIONS=      12
 SOLVING FOR ZETA FOR LAYER     1 ZONE     3
 STRESS PERIOD=   1 TIMESTEP=   19 LAYER=   1 ZONE=   3 ACTIVE CELLS=   12 NUMBER OF EQUATIONS=      12
 
 SOLVING FOR HEAD 


Solver Convergence Information:
                              HClose:  2.2204460E-16
                              RClose:  3.5527137E-15
                           L2-RClose:  4.4960606E-15
                         Rel-Vol-Err:  0.0
 

 HEAD/DRAWDOWN PRINTOUT FLAG = 1     TOTAL BUDGET PRINTOUT FLAG = 0
 CELL-BY-CELL FLOW TERM FLAG = 1

 OUTPUT FLAGS FOR ALL LAYERS ARE THE SAME:
   HEAD    DRAWDOWN  HEAD  DRAWDOWN
 PRINTOUT  PRINTOUT  SAVE    SAVE
 ----------------------------------
     0         0       0       0
 SOLVING FOR ZETA FOR LAYER     1 ZONE     2
 STRESS PERIOD=   1 TIMESTEP=   20 LAYER=   1 ZONE=   2 ACTIVE CELLS=   12 NUMBER OF EQUATIONS=      12
 SOLVING FOR ZETA FOR LAYER     1 ZONE     3
 STRESS PERIOD=   1 TIMESTEP=   20 LAYER=   1 ZONE=   3 ACTIVE CELLS=   12 NUMBER OF EQUATIONS=      12
 
 SOLVING FOR HEAD 


Solver Convergence Information:
                              HClose:  1.1102230E-16
                              RClose:  3.5527137E-15
                           L2-RClose:  5.8663495E-15
                         Rel-Vol-Err:  0.0
 

 HEAD/DRAWDOWN PRINTOUT FLAG = 1     TOTAL BUDGET PRINTOUT FLAG = 0
 CELL-BY-CELL FLOW TERM FLAG = 1

 OUTPUT FLAGS FOR ALL LAYERS ARE THE SAME:
   HEAD    DRAWDOWN  HEAD  DRAWDOWN
 PRINTOUT  PRINTOUT  SAVE    SAVE
 ----------------------------------
     0         0       0       0
 SOLVING FOR ZETA FOR LAYER     1 ZONE     2
 STRESS PERIOD=   1 TIMESTEP=   21 LAYER=   1 ZONE=   2 ACTIVE CELLS=   12 NUMBER OF EQUATIONS=      12
 SOLVING FOR ZETA FOR LAYER     1 ZONE     3
 STRESS PERIOD=   1 TIMESTEP=   21 LAYER=   1 ZONE=   3 ACTIVE CELLS=   12 NUMBER OF EQUATIONS=      12
 
 SOLVING FOR HEAD 


Solver Convergence Information:
                              HClose:  1.1102230E-16
                              RClose:  1.7763568E-15
                           L2-RClose:  2.0947646E-15
                         Rel-Vol-Err:  0.0
 

 HEAD/DRAWDOWN PRINTOUT FLAG = 1     TOTAL BUDGET PRINTOUT FLAG = 0
 CELL-BY-CELL FLOW TERM FLAG = 1

 OUTPUT FLAGS FOR ALL LAYERS ARE THE SAME:
   HEAD    DRAWDOWN  HEAD  DRAWDOWN
 PRINTOUT  PRINTOUT  SAVE    SAVE
 ----------------------------------
     0         0       0       0
 SOLVING FOR ZETA FOR LAYER     1 ZONE     2
 STRESS PERIOD=   1 TIMESTEP=   22 LAYER=   1 ZONE=   2 ACTIVE CELLS=   12 NUMBER OF EQUATIONS=      12
 SOLVING FOR ZETA FOR LAYER     1 ZONE     3
 STRESS PERIOD=   1 TIMESTEP=   22 LAYER=   1 ZONE=   3 ACTIVE CELLS=   12 NUMBER OF EQUATIONS=      12
 
 SOLVING FOR HEAD 


Solver Convergence Information:
                              HClose:  1.1102230E-16
                              RClose:  3.5527137E-15
                           L2-RClose:  3.8201998E-15
                         Rel-Vol-Err:  0.0
 

 HEAD/DRAWDOWN PRINTOUT FLAG = 1     TOTAL BUDGET PRINTOUT FLAG = 0
 CELL-BY-CELL FLOW TERM FLAG = 1

 OUTPUT FLAGS FOR ALL LAYERS ARE THE SAME:
   HEAD    DRAWDOWN  HEAD  DRAWDOWN
 PRINTOUT  PRINTOUT  SAVE    SAVE
 ----------------------------------
     0         0       0       0
 SOLVING FOR ZETA FOR LAYER     1 ZONE     2
 STRESS PERIOD=   1 TIMESTEP=   23 LAYER=   1 ZONE=   2 ACTIVE CELLS=   12 NUMBER OF EQUATIONS=      12
 SOLVING FOR ZETA FOR LAYER     1 ZONE     3
 STRESS PERIOD=   1 TIMESTEP=   23 LAYER=   1 ZONE=   3 ACTIVE CELLS=   12 NUMBER OF EQUATIONS=      12
 
 SOLVING FOR HEAD 


Solver Convergence Information:
                              HClose:  6.9388939E-18
                              RClose:  3.5527137E-15
                           L2-RClose:  4.3681315E-15
                         Rel-Vol-Err:  0.0
 

 HEAD/DRAWDOWN PRINTOUT FLAG = 1     TOTAL BUDGET PRINTOUT FLAG = 0
 CELL-BY-CELL FLOW TERM FLAG = 1

 OUTPUT FLAGS FOR ALL LAYERS ARE THE SAME:
   HEAD    DRAWDOWN  HEAD  DRAWDOWN
 PRINTOUT  PRINTOUT  SAVE    SAVE
 ----------------------------------
     0         0       0       0
 SOLVING FOR ZETA FOR LAYER     1 ZONE     2
 STRESS PERIOD=   1 TIMESTEP=   24 LAYER=   1 ZONE=   2 ACTIVE CELLS=   12 NUMBER OF EQUATIONS=      12
 SOLVING FOR ZETA FOR LAYER     1 ZONE     3
 STRESS PERIOD=   1 TIMESTEP=   24 LAYER=   1 ZONE=   3 ACTIVE CELLS=   12 NUMBER OF EQUATIONS=      12
 
 SOLVING FOR HEAD 


Solver Convergence Information:
                              HClose:  2.7755576E-17
                              RClose:  3.5527137E-15
                           L2-RClose:  4.1895292E-15
                         Rel-Vol-Err:  0.0
 

 HEAD/DRAWDOWN PRINTOUT FLAG = 1     TOTAL BUDGET PRINTOUT FLAG = 0
 CELL-BY-CELL FLOW TERM FLAG = 1

 OUTPUT FLAGS FOR ALL LAYERS ARE THE SAME:
   HEAD    DRAWDOWN  HEAD  DRAWDOWN
 PRINTOUT  PRINTOUT  SAVE    SAVE
 ----------------------------------
     0         0       0       0
 SOLVING FOR ZETA FOR LAYER     1 ZONE     2
 STRESS PERIOD=   1 TIMESTEP=   25 LAYER=   1 ZONE=   2 ACTIVE CELLS=   12 NUMBER OF EQUATIONS=      12
 SOLVING FOR ZETA FOR LAYER     1 ZONE     3
 STRESS PERIOD=   1 TIMESTEP=   25 LAYER=   1 ZONE=   3 ACTIVE CELLS=   12 NUMBER OF EQUATIONS=      12
 
 SOLVING FOR HEAD 


Solver Convergence Information:
                              HClose:  2.2204460E-16
                              RClose:  3.5527137E-15
                           L2-RClose:  7.8189974E-15
                         Rel-Vol-Err:  0.0
 

 HEAD/DRAWDOWN PRINTOUT FLAG = 1     TOTAL BUDGET PRINTOUT FLAG = 0
 CELL-BY-CELL FLOW TERM FLAG = 1

 OUTPUT FLAGS FOR ALL LAYERS ARE THE SAME:
   HEAD    DRAWDOWN  HEAD  DRAWDOWN
 PRINTOUT  PRINTOUT  SAVE    SAVE
 ----------------------------------
     0         0       0       0
 SOLVING FOR ZETA FOR LAYER     1 ZONE     2
 STRESS PERIOD=   1 TIMESTEP=   26 LAYER=   1 ZONE=   2 ACTIVE CELLS=   12 NUMBER OF EQUATIONS=      12
 SOLVING FOR ZETA FOR LAYER     1 ZONE     3
 STRESS PERIOD=   1 TIMESTEP=   26 LAYER=   1 ZONE=   3 ACTIVE CELLS=   12 NUMBER OF EQUATIONS=      12
 
 SOLVING FOR HEAD 


Solver Convergence Information:
                              HClose:  2.2204460E-16
                              RClose:  3.5527137E-15
                           L2-RClose:  8.2066436E-15
                         Rel-Vol-Err:  0.0
 

 HEAD/DRAWDOWN PRINTOUT FLAG = 1     TOTAL BUDGET PRINTOUT FLAG = 0
 CELL-BY-CELL FLOW TERM FLAG = 1

 OUTPUT FLAGS FOR ALL LAYERS ARE THE SAME:
   HEAD    DRAWDOWN  HEAD  DRAWDOWN
 PRINTOUT  PRINTOUT  SAVE    SAVE
 ----------------------------------
     0         0       0       0
 SOLVING FOR ZETA FOR LAYER     1 ZONE     2
 STRESS PERIOD=   1 TIMESTEP=   27 LAYER=   1 ZONE=   2 ACTIVE CELLS=   12 NUMBER OF EQUATIONS=      12
 SOLVING FOR ZETA FOR LAYER     1 ZONE     3
 STRESS PERIOD=   1 TIMESTEP=   27 LAYER=   1 ZONE=   3 ACTIVE CELLS=   12 NUMBER OF EQUATIONS=      12
 
 SOLVING FOR HEAD 


Solver Convergence Information:
                              HClose:  1.1102230E-16
                              RClose:  3.5527137E-15
                           L2-RClose:  7.8692808E-15
                         Rel-Vol-Err:  0.0
 

 HEAD/DRAWDOWN PRINTOUT FLAG = 1     TOTAL BUDGET PRINTOUT FLAG = 0
 CELL-BY-CELL FLOW TERM FLAG = 1

 OUTPUT FLAGS FOR ALL LAYERS ARE THE SAME:
   HEAD    DRAWDOWN  HEAD  DRAWDOWN
 PRINTOUT  PRINTOUT  SAVE    SAVE
 ----------------------------------
     0         0       0       0
 SOLVING FOR ZETA FOR LAYER     1 ZONE     2
 STRESS PERIOD=   1 TIMESTEP=   28 LAYER=   1 ZONE=   2 ACTIVE CELLS=   12 NUMBER OF EQUATIONS=      12
 SOLVING FOR ZETA FOR LAYER     1 ZONE     3
 STRESS PERIOD=   1 TIMESTEP=   28 LAYER=   1 ZONE=   3 ACTIVE CELLS=   12 NUMBER OF EQUATIONS=      12
 
 SOLVING FOR HEAD 


Solver Convergence Information:
                              HClose:  2.2204460E-16
                              RClose:  3.5527137E-15
                           L2-RClose:  4.7467715E-15
                         Rel-Vol-Err:  0.0
 

 HEAD/DRAWDOWN PRINTOUT FLAG = 1     TOTAL BUDGET PRINTOUT FLAG = 0
 CELL-BY-CELL FLOW TERM FLAG = 1

 OUTPUT FLAGS FOR ALL LAYERS ARE THE SAME:
   HEAD    DRAWDOWN  HEAD  DRAWDOWN
 PRINTOUT  PRINTOUT  SAVE    SAVE
 ----------------------------------
     0         0       0       0
 SOLVING FOR ZETA FOR LAYER     1 ZONE     2
 STRESS PERIOD=   1 TIMESTEP=   29 LAYER=   1 ZONE=   2 ACTIVE CELLS=   12 NUMBER OF EQUATIONS=      12
 SOLVING FOR ZETA FOR LAYER     1 ZONE     3
 STRESS PERIOD=   1 TIMESTEP=   29 LAYER=   1 ZONE=   3 ACTIVE CELLS=   12 NUMBER OF EQUATIONS=      12
 
 SOLVING FOR HEAD 


Solver Convergence Information:
                              HClose:  5.5511151E-17
                              RClose:  3.5527137E-15
                           L2-RClose:  4.8086885E-15
                         Rel-Vol-Err:  0.0
 

 HEAD/DRAWDOWN PRINTOUT FLAG = 1     TOTAL BUDGET PRINTOUT FLAG = 0
 CELL-BY-CELL FLOW TERM FLAG = 1

 OUTPUT FLAGS FOR ALL LAYERS ARE THE SAME:
   HEAD    DRAWDOWN  HEAD  DRAWDOWN
 PRINTOUT  PRINTOUT  SAVE    SAVE
 ----------------------------------
     0         0       0       0
 SOLVING FOR ZETA FOR LAYER     1 ZONE     2
 STRESS PERIOD=   1 TIMESTEP=   30 LAYER=   1 ZONE=   2 ACTIVE CELLS=   12 NUMBER OF EQUATIONS=      12
 SOLVING FOR ZETA FOR LAYER     1 ZONE     3
 STRESS PERIOD=   1 TIMESTEP=   30 LAYER=   1 ZONE=   3 ACTIVE CELLS=   12 NUMBER OF EQUATIONS=      12
 
 SOLVING FOR HEAD 


Solver Convergence Information:
                              HClose:  1.1102230E-16
                              RClose:  3.5527137E-15
                           L2-RClose:  5.0633960E-15
                         Rel-Vol-Err:  0.0
 

 HEAD/DRAWDOWN PRINTOUT FLAG = 1     TOTAL BUDGET PRINTOUT FLAG = 0
 CELL-BY-CELL FLOW TERM FLAG = 1

 OUTPUT FLAGS FOR ALL LAYERS ARE THE SAME:
   HEAD    DRAWDOWN  HEAD  DRAWDOWN
 PRINTOUT  PRINTOUT  SAVE    SAVE
 ----------------------------------
     0         0       0       0
 SOLVING FOR ZETA FOR LAYER     1 ZONE     2
 STRESS PERIOD=   1 TIMESTEP=   31 LAYER=   1 ZONE=   2 ACTIVE CELLS=   12 NUMBER OF EQUATIONS=      12
 SOLVING FOR ZETA FOR LAYER     1 ZONE     3
 STRESS PERIOD=   1 TIMESTEP=   31 LAYER=   1 ZONE=   3 ACTIVE CELLS=   12 NUMBER OF EQUATIONS=      12
 
 SOLVING FOR HEAD 


Solver Convergence Information:
                              HClose:  2.2204460E-16
                              RClose:  3.5527137E-15
                           L2-RClose:  4.5559744E-15
                         Rel-Vol-Err:  0.0
 

 HEAD/DRAWDOWN PRINTOUT FLAG = 1     TOTAL BUDGET PRINTOUT FLAG = 0
 CELL-BY-CELL FLOW TERM FLAG = 1

 OUTPUT FLAGS FOR ALL LAYERS ARE THE SAME:
   HEAD    DRAWDOWN  HEAD  DRAWDOWN
 PRINTOUT  PRINTOUT  SAVE    SAVE
 ----------------------------------
     0         0       0       0
 SOLVING FOR ZETA FOR LAYER     1 ZONE     2
 STRESS PERIOD=   1 TIMESTEP=   32 LAYER=   1 ZONE=   2 ACTIVE CELLS=   12 NUMBER OF EQUATIONS=      12
 SOLVING FOR ZETA FOR LAYER     1 ZONE     3
 STRESS PERIOD=   1 TIMESTEP=   32 LAYER=   1 ZONE=   3 ACTIVE CELLS=   12 NUMBER OF EQUATIONS=      12
 
 SOLVING FOR HEAD 


Solver Convergence Information:
                              HClose:  1.1102230E-16
                              RClose:  3.5527137E-15
                           L2-RClose:  4.8138123E-15
                         Rel-Vol-Err:  0.0
 

 HEAD/DRAWDOWN PRINTOUT FLAG = 1     TOTAL BUDGET PRINTOUT FLAG = 0
 CELL-BY-CELL FLOW TERM FLAG = 1

 OUTPUT FLAGS FOR ALL LAYERS ARE THE SAME:
   HEAD    DRAWDOWN  HEAD  DRAWDOWN
 PRINTOUT  PRINTOUT  SAVE    SAVE
 ----------------------------------
     0         0       0       0
 SOLVING FOR ZETA FOR LAYER     1 ZONE     2
 STRESS PERIOD=   1 TIMESTEP=   33 LAYER=   1 ZONE=   2 ACTIVE CELLS=   12 NUMBER OF EQUATIONS=      12
 SOLVING FOR ZETA FOR LAYER     1 ZONE     3
 STRESS PERIOD=   1 TIMESTEP=   33 LAYER=   1 ZONE=   3 ACTIVE CELLS=   12 NUMBER OF EQUATIONS=      12
 
 SOLVING FOR HEAD 


Solver Convergence Information:
                              HClose:  1.1102230E-16
                              RClose:  3.5527137E-15
                           L2-RClose:  4.4464397E-15
                         Rel-Vol-Err:  0.0
 

 HEAD/DRAWDOWN PRINTOUT FLAG = 1     TOTAL BUDGET PRINTOUT FLAG = 0
 CELL-BY-CELL FLOW TERM FLAG = 1

 OUTPUT FLAGS FOR ALL LAYERS ARE THE SAME:
   HEAD    DRAWDOWN  HEAD  DRAWDOWN
 PRINTOUT  PRINTOUT  SAVE    SAVE
 ----------------------------------
     0         0       0       0
 SOLVING FOR ZETA FOR LAYER     1 ZONE     2
 STRESS PERIOD=   1 TIMESTEP=   34 LAYER=   1 ZONE=   2 ACTIVE CELLS=   12 NUMBER OF EQUATIONS=      12
 SOLVING FOR ZETA FOR LAYER     1 ZONE     3
 STRESS PERIOD=   1 TIMESTEP=   34 LAYER=   1 ZONE=   3 ACTIVE CELLS=   12 NUMBER OF EQUATIONS=      12
 
 SOLVING FOR HEAD 


Solver Convergence Information:
                              HClose:  1.3877788E-17
                              RClose:  1.7763568E-15
                           L2-RClose:  3.3528000E-15
                         Rel-Vol-Err:  0.0
 

 HEAD/DRAWDOWN PRINTOUT FLAG = 1     TOTAL BUDGET PRINTOUT FLAG = 0
 CELL-BY-CELL FLOW TERM FLAG = 1

 OUTPUT FLAGS FOR ALL LAYERS ARE THE SAME:
   HEAD    DRAWDOWN  HEAD  DRAWDOWN
 PRINTOUT  PRINTOUT  SAVE    SAVE
 ----------------------------------
     0         0       0       0
 SOLVING FOR ZETA FOR LAYER     1 ZONE     2

       6 UPPER PART EQS.         7 LOWER PART EQS.    BAND WIDTH + 1 =      2
 STRESS PERIOD=   1 TIMESTEP=   35 LAYER=   1 ZONE=   2 ACTIVE CELLS=   13 NUMBER OF EQUATIONS=      13
 SOLVING FOR ZETA FOR LAYER     1 ZONE     3

       6 UPPER PART EQS.         6 LOWER PART EQS.    BAND WIDTH + 1 =      2
 STRESS PERIOD=   1 TIMESTEP=   35 LAYER=   1 ZONE=   3 ACTIVE CELLS=   12 NUMBER OF EQUATIONS=      12
 
 SOLVING FOR HEAD 


Solver Convergence Information:
                              HClose:  1.1102230E-16
                              RClose:  3.5527137E-15
                           L2-RClose:  5.4253454E-15
                         Rel-Vol-Err:  0.0
 

 HEAD/DRAWDOWN PRINTOUT FLAG = 1     TOTAL BUDGET PRINTOUT FLAG = 0
 CELL-BY-CELL FLOW TERM FLAG = 1

 OUTPUT FLAGS FOR ALL LAYERS ARE THE SAME:
   HEAD    DRAWDOWN  HEAD  DRAWDOWN
 PRINTOUT  PRINTOUT  SAVE    SAVE
 ----------------------------------
     0         0       0       0
 SOLVING FOR ZETA FOR LAYER     1 ZONE     2

       6 UPPER PART EQS.         7 LOWER PART EQS.    BAND WIDTH + 1 =      2
 STRESS PERIOD=   1 TIMESTEP=   36 LAYER=   1 ZONE=   2 ACTIVE CELLS=   13 NUMBER OF EQUATIONS=      13
 SOLVING FOR ZETA FOR LAYER     1 ZONE     3

       6 UPPER PART EQS.         6 LOWER PART EQS.    BAND WIDTH + 1 =      2
 STRESS PERIOD=   1 TIMESTEP=   36 LAYER=   1 ZONE=   3 ACTIVE CELLS=   12 NUMBER OF EQUATIONS=      12
 
 SOLVING FOR HEAD 


Solver Convergence Information:
                              HClose:  2.7755576E-17
                              RClose:  3.5527137E-15
                           L2-RClose:  7.0776174E-15
                         Rel-Vol-Err:  0.0
 

 HEAD/DRAWDOWN PRINTOUT FLAG = 1     TOTAL BUDGET PRINTOUT FLAG = 0
 CELL-BY-CELL FLOW TERM FLAG = 1

 OUTPUT FLAGS FOR ALL LAYERS ARE THE SAME:
   HEAD    DRAWDOWN  HEAD  DRAWDOWN
 PRINTOUT  PRINTOUT  SAVE    SAVE
 ----------------------------------
     0         0       0       0
 SOLVING FOR ZETA FOR LAYER     1 ZONE     2

       6 UPPER PART EQS.         7 LOWER PART EQS.    BAND WIDTH + 1 =      2
 STRESS PERIOD=   1 TIMESTEP=   37 LAYER=   1 ZONE=   2 ACTIVE CELLS=   13 NUMBER OF EQUATIONS=      13
 SOLVING FOR ZETA FOR LAYER     1 ZONE     3
 STRESS PERIOD=   1 TIMESTEP=   37 LAYER=   1 ZONE=   3 ACTIVE CELLS=   13 NUMBER OF EQUATIONS=      13
 
 SOLVING FOR HEAD 


Solver Convergence Information:
                              HClose:  1.1102230E-16
                              RClose:  3.5527137E-15
                           L2-RClose:  6.8041366E-15
                         Rel-Vol-Err:  0.0
 

 HEAD/DRAWDOWN PRINTOUT FLAG = 1     TOTAL BUDGET PRINTOUT FLAG = 0
 CELL-BY-CELL FLOW TERM FLAG = 1

 OUTPUT FLAGS FOR ALL LAYERS ARE THE SAME:
   HEAD    DRAWDOWN  HEAD  DRAWDOWN
 PRINTOUT  PRINTOUT  SAVE    SAVE
 ----------------------------------
     0         0       0       0
 SOLVING FOR ZETA FOR LAYER     1 ZONE     2
 STRESS PERIOD=   1 TIMESTEP=   38 LAYER=   1 ZONE=   2 ACTIVE CELLS=   13 NUMBER OF EQUATIONS=      13
 SOLVING FOR ZETA FOR LAYER     1 ZONE     3
 STRESS PERIOD=   1 TIMESTEP=   38 LAYER=   1 ZONE=   3 ACTIVE CELLS=   13 NUMBER OF EQUATIONS=      13
 
 SOLVING FOR HEAD 


Solver Convergence Information:
                              HClose:  5.5511151E-17
                              RClose:  3.5527137E-15
                           L2-RClose:  6.6093247E-15
                         Rel-Vol-Err:  0.0
 

 HEAD/DRAWDOWN PRINTOUT FLAG = 1     TOTAL BUDGET PRINTOUT FLAG = 0
 CELL-BY-CELL FLOW TERM FLAG = 1

 OUTPUT FLAGS FOR ALL LAYERS ARE THE SAME:
   HEAD    DRAWDOWN  HEAD  DRAWDOWN
 PRINTOUT  PRINTOUT  SAVE    SAVE
 ----------------------------------
     0         0       0       0
 SOLVING FOR ZETA FOR LAYER     1 ZONE     2
 STRESS PERIOD=   1 TIMESTEP=   39 LAYER=   1 ZONE=   2 ACTIVE CELLS=   13 NUMBER OF EQUATIONS=      13
 SOLVING FOR ZETA FOR LAYER     1 ZONE     3
 STRESS PERIOD=   1 TIMESTEP=   39 LAYER=   1 ZONE=   3 ACTIVE CELLS=   13 NUMBER OF EQUATIONS=      13
 
 SOLVING FOR HEAD 


Solver Convergence Information:
                              HClose:  2.7755576E-17
                              RClose:  3.5527137E-15
                           L2-RClose:  3.5665645E-15
                         Rel-Vol-Err:  0.0
 

 HEAD/DRAWDOWN PRINTOUT FLAG = 1     TOTAL BUDGET PRINTOUT FLAG = 0
 CELL-BY-CELL FLOW TERM FLAG = 1

 OUTPUT FLAGS FOR ALL LAYERS ARE THE SAME:
   HEAD    DRAWDOWN  HEAD  DRAWDOWN
 PRINTOUT  PRINTOUT  SAVE    SAVE
 ----------------------------------
     0         0       0       0
 SOLVING FOR ZETA FOR LAYER     1 ZONE     2
 STRESS PERIOD=   1 TIMESTEP=   40 LAYER=   1 ZONE=   2 ACTIVE CELLS=   13 NUMBER OF EQUATIONS=      13
 SOLVING FOR ZETA FOR LAYER     1 ZONE     3

       7 UPPER PART EQS.         7 LOWER PART EQS.    BAND WIDTH + 1 =      2
 STRESS PERIOD=   1 TIMESTEP=   40 LAYER=   1 ZONE=   3 ACTIVE CELLS=   14 NUMBER OF EQUATIONS=      14
 
 SOLVING FOR HEAD 


Solver Convergence Information:
                              HClose:  1.1102230E-16
                              RClose:  3.5527137E-15
                           L2-RClose:  4.1123236E-15
                         Rel-Vol-Err:  0.0
 

 HEAD/DRAWDOWN PRINTOUT FLAG = 1     TOTAL BUDGET PRINTOUT FLAG = 0
 CELL-BY-CELL FLOW TERM FLAG = 1

 OUTPUT FLAGS FOR ALL LAYERS ARE THE SAME:
   HEAD    DRAWDOWN  HEAD  DRAWDOWN
 PRINTOUT  PRINTOUT  SAVE    SAVE
 ----------------------------------
     0         0       0       0
 SOLVING FOR ZETA FOR LAYER     1 ZONE     2

       6 UPPER PART EQS.         7 LOWER PART EQS.    BAND WIDTH + 1 =      2
 STRESS PERIOD=   1 TIMESTEP=   41 LAYER=   1 ZONE=   2 ACTIVE CELLS=   13 NUMBER OF EQUATIONS=      13
 SOLVING FOR ZETA FOR LAYER     1 ZONE     3

       7 UPPER PART EQS.         7 LOWER PART EQS.    BAND WIDTH + 1 =      2
 STRESS PERIOD=   1 TIMESTEP=   41 LAYER=   1 ZONE=   3 ACTIVE CELLS=   14 NUMBER OF EQUATIONS=      14
 
 SOLVING FOR HEAD 


Solver Convergence Information:
                              HClose:  1.1102230E-16
                              RClose:  1.7763568E-15
                           L2-RClose:  2.5799252E-15
                         Rel-Vol-Err:  0.0
 

 HEAD/DRAWDOWN PRINTOUT FLAG = 1     TOTAL BUDGET PRINTOUT FLAG = 0
 CELL-BY-CELL FLOW TERM FLAG = 1

 OUTPUT FLAGS FOR ALL LAYERS ARE THE SAME:
   HEAD    DRAWDOWN  HEAD  DRAWDOWN
 PRINTOUT  PRINTOUT  SAVE    SAVE
 ----------------------------------
     0         0       0       0
 SOLVING FOR ZETA FOR LAYER     1 ZONE     2

       6 UPPER PART EQS.         7 LOWER PART EQS.    BAND WIDTH + 1 =      2
 STRESS PERIOD=   1 TIMESTEP=   42 LAYER=   1 ZONE=   2 ACTIVE CELLS=   13 NUMBER OF EQUATIONS=      13
 SOLVING FOR ZETA FOR LAYER     1 ZONE     3

       7 UPPER PART EQS.         7 LOWER PART EQS.    BAND WIDTH + 1 =      2
 STRESS PERIOD=   1 TIMESTEP=   42 LAYER=   1 ZONE=   3 ACTIVE CELLS=   14 NUMBER OF EQUATIONS=      14
 
 SOLVING FOR HEAD 


Solver Convergence Information:
                              HClose:  5.5511151E-17
                              RClose:  3.5527137E-15
                           L2-RClose:  5.4615751E-15
                         Rel-Vol-Err:  0.0
 

 HEAD/DRAWDOWN PRINTOUT FLAG = 1     TOTAL BUDGET PRINTOUT FLAG = 0
 CELL-BY-CELL FLOW TERM FLAG = 1

 OUTPUT FLAGS FOR ALL LAYERS ARE THE SAME:
   HEAD    DRAWDOWN  HEAD  DRAWDOWN
 PRINTOUT  PRINTOUT  SAVE    SAVE
 ----------------------------------
     0         0       0       0
 SOLVING FOR ZETA FOR LAYER     1 ZONE     2
 STRESS PERIOD=   1 TIMESTEP=   43 LAYER=   1 ZONE=   2 ACTIVE CELLS=   14 NUMBER OF EQUATIONS=      14
 SOLVING FOR ZETA FOR LAYER     1 ZONE     3
 STRESS PERIOD=   1 TIMESTEP=   43 LAYER=   1 ZONE=   3 ACTIVE CELLS=   14 NUMBER OF EQUATIONS=      14
 
 SOLVING FOR HEAD 


Solver Convergence Information:
                              HClose:  5.5511151E-17
                              RClose:  3.5527137E-15
                           L2-RClose:  5.8114635E-15
                         Rel-Vol-Err:  0.0
 

 HEAD/DRAWDOWN PRINTOUT FLAG = 1     TOTAL BUDGET PRINTOUT FLAG = 0
 CELL-BY-CELL FLOW TERM FLAG = 1

 OUTPUT FLAGS FOR ALL LAYERS ARE THE SAME:
   HEAD    DRAWDOWN  HEAD  DRAWDOWN
 PRINTOUT  PRINTOUT  SAVE    SAVE
 ----------------------------------
     0         0       0       0
 SOLVING FOR ZETA FOR LAYER     1 ZONE     2
 STRESS PERIOD=   1 TIMESTEP=   44 LAYER=   1 ZONE=   2 ACTIVE CELLS=   14 NUMBER OF EQUATIONS=      14
 SOLVING FOR ZETA FOR LAYER     1 ZONE     3
 STRESS PERIOD=   1 TIMESTEP=   44 LAYER=   1 ZONE=   3 ACTIVE CELLS=   14 NUMBER OF EQUATIONS=      14
 
 SOLVING FOR HEAD 


Solver Convergence Information:
                              HClose:  5.5511151E-17
                              RClose:  1.7763568E-15
                           L2-RClose:  3.6955587E-15
                         Rel-Vol-Err:  0.0
 

 HEAD/DRAWDOWN PRINTOUT FLAG = 1     TOTAL BUDGET PRINTOUT FLAG = 0
 CELL-BY-CELL FLOW TERM FLAG = 1

 OUTPUT FLAGS FOR ALL LAYERS ARE THE SAME:
   HEAD    DRAWDOWN  HEAD  DRAWDOWN
 PRINTOUT  PRINTOUT  SAVE    SAVE
 ----------------------------------
     0         0       0       0
 SOLVING FOR ZETA FOR LAYER     1 ZONE     2
 STRESS PERIOD=   1 TIMESTEP=   45 LAYER=   1 ZONE=   2 ACTIVE CELLS=   14 NUMBER OF EQUATIONS=      14
 SOLVING FOR ZETA FOR LAYER     1 ZONE     3
 STRESS PERIOD=   1 TIMESTEP=   45 LAYER=   1 ZONE=   3 ACTIVE CELLS=   14 NUMBER OF EQUATIONS=      14
 
 SOLVING FOR HEAD 


Solver Convergence Information:
                              HClose:  1.1102230E-16
                              RClose:  3.5527137E-15
                           L2-RClose:  3.6955587E-15
                         Rel-Vol-Err:  0.0
 

 HEAD/DRAWDOWN PRINTOUT FLAG = 1     TOTAL BUDGET PRINTOUT FLAG = 0
 CELL-BY-CELL FLOW TERM FLAG = 1

 OUTPUT FLAGS FOR ALL LAYERS ARE THE SAME:
   HEAD    DRAWDOWN  HEAD  DRAWDOWN
 PRINTOUT  PRINTOUT  SAVE    SAVE
 ----------------------------------
     0         0       0       0
 SOLVING FOR ZETA FOR LAYER     1 ZONE     2
 STRESS PERIOD=   1 TIMESTEP=   46 LAYER=   1 ZONE=   2 ACTIVE CELLS=   14 NUMBER OF EQUATIONS=      14
 SOLVING FOR ZETA FOR LAYER     1 ZONE     3
 STRESS PERIOD=   1 TIMESTEP=   46 LAYER=   1 ZONE=   3 ACTIVE CELLS=   14 NUMBER OF EQUATIONS=      14
 
 SOLVING FOR HEAD 


Solver Convergence Information:
                              HClose:  1.1102230E-16
                              RClose:  1.7763568E-15
                           L2-RClose:  2.2752801E-15
                         Rel-Vol-Err:  0.0
 

 HEAD/DRAWDOWN PRINTOUT FLAG = 1     TOTAL BUDGET PRINTOUT FLAG = 0
 CELL-BY-CELL FLOW TERM FLAG = 1

 OUTPUT FLAGS FOR ALL LAYERS ARE THE SAME:
   HEAD    DRAWDOWN  HEAD  DRAWDOWN
 PRINTOUT  PRINTOUT  SAVE    SAVE
 ----------------------------------
     0         0       0       0
 SOLVING FOR ZETA FOR LAYER     1 ZONE     2
 STRESS PERIOD=   1 TIMESTEP=   47 LAYER=   1 ZONE=   2 ACTIVE CELLS=   14 NUMBER OF EQUATIONS=      14
 SOLVING FOR ZETA FOR LAYER     1 ZONE     3
 STRESS PERIOD=   1 TIMESTEP=   47 LAYER=   1 ZONE=   3 ACTIVE CELLS=   14 NUMBER OF EQUATIONS=      14
 
 SOLVING FOR HEAD 


Solver Convergence Information:
                              HClose:  1.1102230E-16
                              RClose:  3.5527137E-15
                           L2-RClose:  5.0487690E-15
                         Rel-Vol-Err:  0.0
 

 HEAD/DRAWDOWN PRINTOUT FLAG = 1     TOTAL BUDGET PRINTOUT FLAG = 0
 CELL-BY-CELL FLOW TERM FLAG = 1

 OUTPUT FLAGS FOR ALL LAYERS ARE THE SAME:
   HEAD    DRAWDOWN  HEAD  DRAWDOWN
 PRINTOUT  PRINTOUT  SAVE    SAVE
 ----------------------------------
     0         0       0       0
 SOLVING FOR ZETA FOR LAYER     1 ZONE     2
 STRESS PERIOD=   1 TIMESTEP=   48 LAYER=   1 ZONE=   2 ACTIVE CELLS=   14 NUMBER OF EQUATIONS=      14
 SOLVING FOR ZETA FOR LAYER     1 ZONE     3
 STRESS PERIOD=   1 TIMESTEP=   48 LAYER=   1 ZONE=   3 ACTIVE CELLS=   14 NUMBER OF EQUATIONS=      14
 
 SOLVING FOR HEAD 


Solver Convergence Information:
                              HClose:  5.5511151E-17
                              RClose:  3.5527137E-15
                           L2-RClose:  4.2012811E-15
                         Rel-Vol-Err:  0.0
 

 HEAD/DRAWDOWN PRINTOUT FLAG = 1     TOTAL BUDGET PRINTOUT FLAG = 0
 CELL-BY-CELL FLOW TERM FLAG = 1

 OUTPUT FLAGS FOR ALL LAYERS ARE THE SAME:
   HEAD    DRAWDOWN  HEAD  DRAWDOWN
 PRINTOUT  PRINTOUT  SAVE    SAVE
 ----------------------------------
     0         0       0       0
 SOLVING FOR ZETA FOR LAYER     1 ZONE     2
 STRESS PERIOD=   1 TIMESTEP=   49 LAYER=   1 ZONE=   2 ACTIVE CELLS=   14 NUMBER OF EQUATIONS=      14
 SOLVING FOR ZETA FOR LAYER     1 ZONE     3
 STRESS PERIOD=   1 TIMESTEP=   49 LAYER=   1 ZONE=   3 ACTIVE CELLS=   14 NUMBER OF EQUATIONS=      14
 
 SOLVING FOR HEAD 


Solver Convergence Information:
                              HClose:  5.5511151E-17
                              RClose:  1.7763568E-15
                           L2-RClose:  2.7285298E-15
                         Rel-Vol-Err:  0.0
 

 HEAD/DRAWDOWN PRINTOUT FLAG = 1     TOTAL BUDGET PRINTOUT FLAG = 0
 CELL-BY-CELL FLOW TERM FLAG = 1

 OUTPUT FLAGS FOR ALL LAYERS ARE THE SAME:
   HEAD    DRAWDOWN  HEAD  DRAWDOWN
 PRINTOUT  PRINTOUT  SAVE    SAVE
 ----------------------------------
     0         0       0       0
 SOLVING FOR ZETA FOR LAYER     1 ZONE     2
 STRESS PERIOD=   1 TIMESTEP=   50 LAYER=   1 ZONE=   2 ACTIVE CELLS=   14 NUMBER OF EQUATIONS=      14
 SOLVING FOR ZETA FOR LAYER     1 ZONE     3
 STRESS PERIOD=   1 TIMESTEP=   50 LAYER=   1 ZONE=   3 ACTIVE CELLS=   14 NUMBER OF EQUATIONS=      14
 
 SOLVING FOR HEAD 


Solver Convergence Information:
                              HClose:  1.1102230E-16
                              RClose:  3.5527137E-15
                           L2-RClose:  6.4774640E-15
                         Rel-Vol-Err:  0.0
 

 HEAD/DRAWDOWN PRINTOUT FLAG = 1     TOTAL BUDGET PRINTOUT FLAG = 0
 CELL-BY-CELL FLOW TERM FLAG = 1

 OUTPUT FLAGS FOR ALL LAYERS ARE THE SAME:
   HEAD    DRAWDOWN  HEAD  DRAWDOWN
 PRINTOUT  PRINTOUT  SAVE    SAVE
 ----------------------------------
     0         0       0       0
 SOLVING FOR ZETA FOR LAYER     1 ZONE     2
 STRESS PERIOD=   1 TIMESTEP=   51 LAYER=   1 ZONE=   2 ACTIVE CELLS=   14 NUMBER OF EQUATIONS=      14
 SOLVING FOR ZETA FOR LAYER     1 ZONE     3
 STRESS PERIOD=   1 TIMESTEP=   51 LAYER=   1 ZONE=   3 ACTIVE CELLS=   14 NUMBER OF EQUATIONS=      14
 
 SOLVING FOR HEAD 


Solver Convergence Information:
                              HClose:  2.7755576E-17
                              RClose:  1.7763568E-15
                           L2-RClose:  2.7103998E-15
                         Rel-Vol-Err:  0.0
 

 HEAD/DRAWDOWN PRINTOUT FLAG = 1     TOTAL BUDGET PRINTOUT FLAG = 0
 CELL-BY-CELL FLOW TERM FLAG = 1

 OUTPUT FLAGS FOR ALL LAYERS ARE THE SAME:
   HEAD    DRAWDOWN  HEAD  DRAWDOWN
 PRINTOUT  PRINTOUT  SAVE    SAVE
 ----------------------------------
     0         0       0       0
 SOLVING FOR ZETA FOR LAYER     1 ZONE     2
 STRESS PERIOD=   1 TIMESTEP=   52 LAYER=   1 ZONE=   2 ACTIVE CELLS=   14 NUMBER OF EQUATIONS=      14
 SOLVING FOR ZETA FOR LAYER     1 ZONE     3
 STRESS PERIOD=   1 TIMESTEP=   52 LAYER=   1 ZONE=   3 ACTIVE CELLS=   14 NUMBER OF EQUATIONS=      14
 
 SOLVING FOR HEAD 


Solver Convergence Information:
                              HClose:  2.2204460E-16
                              RClose:  1.7763568E-15
                           L2-RClose:  1.8971499E-15
                         Rel-Vol-Err:  0.0
 

 HEAD/DRAWDOWN PRINTOUT FLAG = 1     TOTAL BUDGET PRINTOUT FLAG = 0
 CELL-BY-CELL FLOW TERM FLAG = 1

 OUTPUT FLAGS FOR ALL LAYERS ARE THE SAME:
   HEAD    DRAWDOWN  HEAD  DRAWDOWN
 PRINTOUT  PRINTOUT  SAVE    SAVE
 ----------------------------------
     0         0       0       0
 SOLVING FOR ZETA FOR LAYER     1 ZONE     2
 STRESS PERIOD=   1 TIMESTEP=   53 LAYER=   1 ZONE=   2 ACTIVE CELLS=   14 NUMBER OF EQUATIONS=      14
 SOLVING FOR ZETA FOR LAYER     1 ZONE     3
 STRESS PERIOD=   1 TIMESTEP=   53 LAYER=   1 ZONE=   3 ACTIVE CELLS=   14 NUMBER OF EQUATIONS=      14
 
 SOLVING FOR HEAD 


Solver Convergence Information:
                              HClose:  2.2204460E-16
                              RClose:  3.5527137E-15
                           L2-RClose:  4.6840361E-15
                         Rel-Vol-Err:  0.0
 

 HEAD/DRAWDOWN PRINTOUT FLAG = 1     TOTAL BUDGET PRINTOUT FLAG = 0
 CELL-BY-CELL FLOW TERM FLAG = 1

 OUTPUT FLAGS FOR ALL LAYERS ARE THE SAME:
   HEAD    DRAWDOWN  HEAD  DRAWDOWN
 PRINTOUT  PRINTOUT  SAVE    SAVE
 ----------------------------------
     0         0       0       0
 SOLVING FOR ZETA FOR LAYER     1 ZONE     2
 STRESS PERIOD=   1 TIMESTEP=   54 LAYER=   1 ZONE=   2 ACTIVE CELLS=   14 NUMBER OF EQUATIONS=      14
 SOLVING FOR ZETA FOR LAYER     1 ZONE     3
 STRESS PERIOD=   1 TIMESTEP=   54 LAYER=   1 ZONE=   3 ACTIVE CELLS=   14 NUMBER OF EQUATIONS=      14
 
 SOLVING FOR HEAD 


Solver Convergence Information:
                              HClose:  1.1102230E-16
                              RClose:  3.5527137E-15
                           L2-RClose:  5.9373581E-15
                         Rel-Vol-Err:  0.0
 

 HEAD/DRAWDOWN PRINTOUT FLAG = 1     TOTAL BUDGET PRINTOUT FLAG = 0
 CELL-BY-CELL FLOW TERM FLAG = 1

 OUTPUT FLAGS FOR ALL LAYERS ARE THE SAME:
   HEAD    DRAWDOWN  HEAD  DRAWDOWN
 PRINTOUT  PRINTOUT  SAVE    SAVE
 ----------------------------------
     0         0       0       0
 SOLVING FOR ZETA FOR LAYER     1 ZONE     2
 STRESS PERIOD=   1 TIMESTEP=   55 LAYER=   1 ZONE=   2 ACTIVE CELLS=   14 NUMBER OF EQUATIONS=      14
 SOLVING FOR ZETA FOR LAYER     1 ZONE     3
 STRESS PERIOD=   1 TIMESTEP=   55 LAYER=   1 ZONE=   3 ACTIVE CELLS=   14 NUMBER OF EQUATIONS=      14
 
 SOLVING FOR HEAD 


Solver Convergence Information:
                              HClose:  1.1102230E-16
                              RClose:  3.5527137E-15
                           L2-RClose:  5.0536494E-15
                         Rel-Vol-Err:  0.0
 

 HEAD/DRAWDOWN PRINTOUT FLAG = 1     TOTAL BUDGET PRINTOUT FLAG = 0
 CELL-BY-CELL FLOW TERM FLAG = 1

 OUTPUT FLAGS FOR ALL LAYERS ARE THE SAME:
   HEAD    DRAWDOWN  HEAD  DRAWDOWN
 PRINTOUT  PRINTOUT  SAVE    SAVE
 ----------------------------------
     0         0       0       0
 SOLVING FOR ZETA FOR LAYER     1 ZONE     2
 STRESS PERIOD=   1 TIMESTEP=   56 LAYER=   1 ZONE=   2 ACTIVE CELLS=   14 NUMBER OF EQUATIONS=      14
 SOLVING FOR ZETA FOR LAYER     1 ZONE     3
 STRESS PERIOD=   1 TIMESTEP=   56 LAYER=   1 ZONE=   3 ACTIVE CELLS=   14 NUMBER OF EQUATIONS=      14
 
 SOLVING FOR HEAD 


Solver Convergence Information:
                              HClose:  5.5511151E-17
                              RClose:  3.5527137E-15
                           L2-RClose:  6.4850711E-15
                         Rel-Vol-Err:  0.0
 

 HEAD/DRAWDOWN PRINTOUT FLAG = 1     TOTAL BUDGET PRINTOUT FLAG = 0
 CELL-BY-CELL FLOW TERM FLAG = 1

 OUTPUT FLAGS FOR ALL LAYERS ARE THE SAME:
   HEAD    DRAWDOWN  HEAD  DRAWDOWN
 PRINTOUT  PRINTOUT  SAVE    SAVE
 ----------------------------------
     0         0       0       0
 SOLVING FOR ZETA FOR LAYER     1 ZONE     2
 STRESS PERIOD=   1 TIMESTEP=   57 LAYER=   1 ZONE=   2 ACTIVE CELLS=   14 NUMBER OF EQUATIONS=      14
 SOLVING FOR ZETA FOR LAYER     1 ZONE     3
 STRESS PERIOD=   1 TIMESTEP=   57 LAYER=   1 ZONE=   3 ACTIVE CELLS=   14 NUMBER OF EQUATIONS=      14
 
 SOLVING FOR HEAD 


Solver Convergence Information:
                              HClose:  2.7755576E-17
                              RClose:  1.7763568E-15
                           L2-RClose:  2.8435584E-15
                         Rel-Vol-Err:  0.0
 

 HEAD/DRAWDOWN PRINTOUT FLAG = 1     TOTAL BUDGET PRINTOUT FLAG = 0
 CELL-BY-CELL FLOW TERM FLAG = 1

 OUTPUT FLAGS FOR ALL LAYERS ARE THE SAME:
   HEAD    DRAWDOWN  HEAD  DRAWDOWN
 PRINTOUT  PRINTOUT  SAVE    SAVE
 ----------------------------------
     0         0       0       0
 SOLVING FOR ZETA FOR LAYER     1 ZONE     2
 STRESS PERIOD=   1 TIMESTEP=   58 LAYER=   1 ZONE=   2 ACTIVE CELLS=   14 NUMBER OF EQUATIONS=      14
 SOLVING FOR ZETA FOR LAYER     1 ZONE     3
 STRESS PERIOD=   1 TIMESTEP=   58 LAYER=   1 ZONE=   3 ACTIVE CELLS=   14 NUMBER OF EQUATIONS=      14
 
 SOLVING FOR HEAD 


Solver Convergence Information:
                              HClose:  1.3877788E-17
                              RClose:  3.5527137E-15
                           L2-RClose:  4.7984245E-15
                         Rel-Vol-Err:  0.0
 

 HEAD/DRAWDOWN PRINTOUT FLAG = 1     TOTAL BUDGET PRINTOUT FLAG = 0
 CELL-BY-CELL FLOW TERM FLAG = 1

 OUTPUT FLAGS FOR ALL LAYERS ARE THE SAME:
   HEAD    DRAWDOWN  HEAD  DRAWDOWN
 PRINTOUT  PRINTOUT  SAVE    SAVE
 ----------------------------------
     0         0       0       0
 SOLVING FOR ZETA FOR LAYER     1 ZONE     2
 STRESS PERIOD=   1 TIMESTEP=   59 LAYER=   1 ZONE=   2 ACTIVE CELLS=   14 NUMBER OF EQUATIONS=      14
 SOLVING FOR ZETA FOR LAYER     1 ZONE     3
 STRESS PERIOD=   1 TIMESTEP=   59 LAYER=   1 ZONE=   3 ACTIVE CELLS=   14 NUMBER OF EQUATIONS=      14
 
 SOLVING FOR HEAD 


Solver Convergence Information:
                              HClose:  5.5511151E-17
                              RClose:  3.5527137E-15
                           L2-RClose:  5.3521502E-15
                         Rel-Vol-Err:  0.0
 

 HEAD/DRAWDOWN PRINTOUT FLAG = 1     TOTAL BUDGET PRINTOUT FLAG = 0
 CELL-BY-CELL FLOW TERM FLAG = 1

 OUTPUT FLAGS FOR ALL LAYERS ARE THE SAME:
   HEAD    DRAWDOWN  HEAD  DRAWDOWN
 PRINTOUT  PRINTOUT  SAVE    SAVE
 ----------------------------------
     0         0       0       0
 SOLVING FOR ZETA FOR LAYER     1 ZONE     2

       8 UPPER PART EQS.         7 LOWER PART EQS.    BAND WIDTH + 1 =      2
 STRESS PERIOD=   1 TIMESTEP=   60 LAYER=   1 ZONE=   2 ACTIVE CELLS=   15 NUMBER OF EQUATIONS=      15
 SOLVING FOR ZETA FOR LAYER     1 ZONE     3

       7 UPPER PART EQS.         7 LOWER PART EQS.    BAND WIDTH + 1 =      2
 STRESS PERIOD=   1 TIMESTEP=   60 LAYER=   1 ZONE=   3 ACTIVE CELLS=   14 NUMBER OF EQUATIONS=      14
 
 SOLVING FOR HEAD 


Solver Convergence Information:
                              HClose:  5.5511151E-17
                              RClose:  3.5527137E-15
                           L2-RClose:  6.3234000E-15
                         Rel-Vol-Err:  0.0
 

 HEAD/DRAWDOWN PRINTOUT FLAG = 1     TOTAL BUDGET PRINTOUT FLAG = 0
 CELL-BY-CELL FLOW TERM FLAG = 1

 OUTPUT FLAGS FOR ALL LAYERS ARE THE SAME:
   HEAD    DRAWDOWN  HEAD  DRAWDOWN
 PRINTOUT  PRINTOUT  SAVE    SAVE
 ----------------------------------
     0         0       0       0
 SOLVING FOR ZETA FOR LAYER     1 ZONE     2

       8 UPPER PART EQS.         7 LOWER PART EQS.    BAND WIDTH + 1 =      2
 STRESS PERIOD=   1 TIMESTEP=   61 LAYER=   1 ZONE=   2 ACTIVE CELLS=   15 NUMBER OF EQUATIONS=      15
 SOLVING FOR ZETA FOR LAYER     1 ZONE     3

       7 UPPER PART EQS.         7 LOWER PART EQS.    BAND WIDTH + 1 =      2
 STRESS PERIOD=   1 TIMESTEP=   61 LAYER=   1 ZONE=   3 ACTIVE CELLS=   14 NUMBER OF EQUATIONS=      14
 
 SOLVING FOR HEAD 


Solver Convergence Information:
                              HClose:  1.1102230E-16
                              RClose:  3.5527137E-15
                           L2-RClose:  4.1003168E-15
                         Rel-Vol-Err:  0.0
 

 HEAD/DRAWDOWN PRINTOUT FLAG = 1     TOTAL BUDGET PRINTOUT FLAG = 0
 CELL-BY-CELL FLOW TERM FLAG = 1

 OUTPUT FLAGS FOR ALL LAYERS ARE THE SAME:
   HEAD    DRAWDOWN  HEAD  DRAWDOWN
 PRINTOUT  PRINTOUT  SAVE    SAVE
 ----------------------------------
     0         0       0       0
 SOLVING FOR ZETA FOR LAYER     1 ZONE     2

       8 UPPER PART EQS.         7 LOWER PART EQS.    BAND WIDTH + 1 =      2
 STRESS PERIOD=   1 TIMESTEP=   62 LAYER=   1 ZONE=   2 ACTIVE CELLS=   15 NUMBER OF EQUATIONS=      15
 SOLVING FOR ZETA FOR LAYER     1 ZONE     3

       7 UPPER PART EQS.         7 LOWER PART EQS.    BAND WIDTH + 1 =      2
 STRESS PERIOD=   1 TIMESTEP=   62 LAYER=   1 ZONE=   3 ACTIVE CELLS=   14 NUMBER OF EQUATIONS=      14
 
 SOLVING FOR HEAD 


Solver Convergence Information:
                              HClose:  5.5511151E-17
                              RClose:  3.5527137E-15
                           L2-RClose:  4.4408921E-15
                         Rel-Vol-Err:  0.0
 

 HEAD/DRAWDOWN PRINTOUT FLAG = 1     TOTAL BUDGET PRINTOUT FLAG = 0
 CELL-BY-CELL FLOW TERM FLAG = 1

 OUTPUT FLAGS FOR ALL LAYERS ARE THE SAME:
   HEAD    DRAWDOWN  HEAD  DRAWDOWN
 PRINTOUT  PRINTOUT  SAVE    SAVE
 ----------------------------------
     0         0       0       0
 SOLVING FOR ZETA FOR LAYER     1 ZONE     2

       8 UPPER PART EQS.         7 LOWER PART EQS.    BAND WIDTH + 1 =      2
 STRESS PERIOD=   1 TIMESTEP=   63 LAYER=   1 ZONE=   2 ACTIVE CELLS=   15 NUMBER OF EQUATIONS=      15
 SOLVING FOR ZETA FOR LAYER     1 ZONE     3

       7 UPPER PART EQS.         7 LOWER PART EQS.    BAND WIDTH + 1 =      2
 STRESS PERIOD=   1 TIMESTEP=   63 LAYER=   1 ZONE=   3 ACTIVE CELLS=   14 NUMBER OF EQUATIONS=      14
 
 SOLVING FOR HEAD 


Solver Convergence Information:
                              HClose:  2.7755576E-17
                              RClose:  3.5527137E-15
                           L2-RClose:  6.3195002E-15
                         Rel-Vol-Err:  0.0
 

 HEAD/DRAWDOWN PRINTOUT FLAG = 1     TOTAL BUDGET PRINTOUT FLAG = 0
 CELL-BY-CELL FLOW TERM FLAG = 1

 OUTPUT FLAGS FOR ALL LAYERS ARE THE SAME:
   HEAD    DRAWDOWN  HEAD  DRAWDOWN
 PRINTOUT  PRINTOUT  SAVE    SAVE
 ----------------------------------
     0         0       0       0
 SOLVING FOR ZETA FOR LAYER     1 ZONE     2

       8 UPPER PART EQS.         7 LOWER PART EQS.    BAND WIDTH + 1 =      2
 STRESS PERIOD=   1 TIMESTEP=   64 LAYER=   1 ZONE=   2 ACTIVE CELLS=   15 NUMBER OF EQUATIONS=      15
 SOLVING FOR ZETA FOR LAYER     1 ZONE     3

       7 UPPER PART EQS.         7 LOWER PART EQS.    BAND WIDTH + 1 =      2
 STRESS PERIOD=   1 TIMESTEP=   64 LAYER=   1 ZONE=   3 ACTIVE CELLS=   14 NUMBER OF EQUATIONS=      14
 
 SOLVING FOR HEAD 


Solver Convergence Information:
                              HClose:  5.5511151E-17
                              RClose:  3.5527137E-15
                           L2-RClose:  5.5020485E-15
                         Rel-Vol-Err:  0.0
 

 HEAD/DRAWDOWN PRINTOUT FLAG = 1     TOTAL BUDGET PRINTOUT FLAG = 0
 CELL-BY-CELL FLOW TERM FLAG = 1

 OUTPUT FLAGS FOR ALL LAYERS ARE THE SAME:
   HEAD    DRAWDOWN  HEAD  DRAWDOWN
 PRINTOUT  PRINTOUT  SAVE    SAVE
 ----------------------------------
     0         0       0       0
 SOLVING FOR ZETA FOR LAYER     1 ZONE     2

       8 UPPER PART EQS.         7 LOWER PART EQS.    BAND WIDTH + 1 =      2
 STRESS PERIOD=   1 TIMESTEP=   65 LAYER=   1 ZONE=   2 ACTIVE CELLS=   15 NUMBER OF EQUATIONS=      15
 SOLVING FOR ZETA FOR LAYER     1 ZONE     3

       7 UPPER PART EQS.         7 LOWER PART EQS.    BAND WIDTH + 1 =      2
 STRESS PERIOD=   1 TIMESTEP=   65 LAYER=   1 ZONE=   3 ACTIVE CELLS=   14 NUMBER OF EQUATIONS=      14
 
 SOLVING FOR HEAD 


Solver Convergence Information:
                              HClose:  5.5511151E-17
                              RClose:  1.7763568E-15
                           L2-RClose:  2.6366336E-15
                         Rel-Vol-Err:  0.0
 

 HEAD/DRAWDOWN PRINTOUT FLAG = 1     TOTAL BUDGET PRINTOUT FLAG = 0
 CELL-BY-CELL FLOW TERM FLAG = 1

 OUTPUT FLAGS FOR ALL LAYERS ARE THE SAME:
   HEAD    DRAWDOWN  HEAD  DRAWDOWN
 PRINTOUT  PRINTOUT  SAVE    SAVE
 ----------------------------------
     0         0       0       0
 SOLVING FOR ZETA FOR LAYER     1 ZONE     2

       8 UPPER PART EQS.         7 LOWER PART EQS.    BAND WIDTH + 1 =      2
 STRESS PERIOD=   1 TIMESTEP=   66 LAYER=   1 ZONE=   2 ACTIVE CELLS=   15 NUMBER OF EQUATIONS=      15
 SOLVING FOR ZETA FOR LAYER     1 ZONE     3

       7 UPPER PART EQS.         8 LOWER PART EQS.    BAND WIDTH + 1 =      2
 STRESS PERIOD=   1 TIMESTEP=   66 LAYER=   1 ZONE=   3 ACTIVE CELLS=   15 NUMBER OF EQUATIONS=      15
 
 SOLVING FOR HEAD 


Solver Convergence Information:
                              HClose:  1.1102230E-16
                              RClose:  3.5527137E-15
                           L2-RClose:  6.4431208E-15
                         Rel-Vol-Err:  0.0
 

 HEAD/DRAWDOWN PRINTOUT FLAG = 1     TOTAL BUDGET PRINTOUT FLAG = 0
 CELL-BY-CELL FLOW TERM FLAG = 1

 OUTPUT FLAGS FOR ALL LAYERS ARE THE SAME:
   HEAD    DRAWDOWN  HEAD  DRAWDOWN
 PRINTOUT  PRINTOUT  SAVE    SAVE
 ----------------------------------
     0         0       0       0
 SOLVING FOR ZETA FOR LAYER     1 ZONE     2

       8 UPPER PART EQS.         7 LOWER PART EQS.    BAND WIDTH + 1 =      2
 STRESS PERIOD=   1 TIMESTEP=   67 LAYER=   1 ZONE=   2 ACTIVE CELLS=   15 NUMBER OF EQUATIONS=      15
 SOLVING FOR ZETA FOR LAYER     1 ZONE     3

       7 UPPER PART EQS.         8 LOWER PART EQS.    BAND WIDTH + 1 =      2
 STRESS PERIOD=   1 TIMESTEP=   67 LAYER=   1 ZONE=   3 ACTIVE CELLS=   15 NUMBER OF EQUATIONS=      15
 
 SOLVING FOR HEAD 


Solver Convergence Information:
                              HClose:  5.5511151E-17
                              RClose:  3.5527137E-15
                           L2-RClose:  4.1718394E-15
                         Rel-Vol-Err:  0.0
 

 HEAD/DRAWDOWN PRINTOUT FLAG = 1     TOTAL BUDGET PRINTOUT FLAG = 0
 CELL-BY-CELL FLOW TERM FLAG = 1

 OUTPUT FLAGS FOR ALL LAYERS ARE THE SAME:
   HEAD    DRAWDOWN  HEAD  DRAWDOWN
 PRINTOUT  PRINTOUT  SAVE    SAVE
 ----------------------------------
     0         0       0       0
 SOLVING FOR ZETA FOR LAYER     1 ZONE     2

       8 UPPER PART EQS.         7 LOWER PART EQS.    BAND WIDTH + 1 =      2
 STRESS PERIOD=   1 TIMESTEP=   68 LAYER=   1 ZONE=   2 ACTIVE CELLS=   15 NUMBER OF EQUATIONS=      15
 SOLVING FOR ZETA FOR LAYER     1 ZONE     3

       7 UPPER PART EQS.         8 LOWER PART EQS.    BAND WIDTH + 1 =      2
 STRESS PERIOD=   1 TIMESTEP=   68 LAYER=   1 ZONE=   3 ACTIVE CELLS=   15 NUMBER OF EQUATIONS=      15
 
 SOLVING FOR HEAD 


Solver Convergence Information:
                              HClose:  5.5511151E-17
                              RClose:  1.7763568E-15
                           L2-RClose:  2.0710942E-15
                         Rel-Vol-Err:  0.0
 

 HEAD/DRAWDOWN PRINTOUT FLAG = 1     TOTAL BUDGET PRINTOUT FLAG = 0
 CELL-BY-CELL FLOW TERM FLAG = 1

 OUTPUT FLAGS FOR ALL LAYERS ARE THE SAME:
   HEAD    DRAWDOWN  HEAD  DRAWDOWN
 PRINTOUT  PRINTOUT  SAVE    SAVE
 ----------------------------------
     0         0       0       0
 SOLVING FOR ZETA FOR LAYER     1 ZONE     2

       8 UPPER PART EQS.         7 LOWER PART EQS.    BAND WIDTH + 1 =      2
 STRESS PERIOD=   1 TIMESTEP=   69 LAYER=   1 ZONE=   2 ACTIVE CELLS=   15 NUMBER OF EQUATIONS=      15
 SOLVING FOR ZETA FOR LAYER     1 ZONE     3

       8 UPPER PART EQS.         8 LOWER PART EQS.    BAND WIDTH + 1 =      2
 STRESS PERIOD=   1 TIMESTEP=   69 LAYER=   1 ZONE=   3 ACTIVE CELLS=   16 NUMBER OF EQUATIONS=      16
 
 SOLVING FOR HEAD 


Solver Convergence Information:
                              HClose:  5.5511151E-17
                              RClose:  1.7763568E-15
                           L2-RClose:  3.2177320E-15
                         Rel-Vol-Err:  0.0
 

 HEAD/DRAWDOWN PRINTOUT FLAG = 1     TOTAL BUDGET PRINTOUT FLAG = 0
 CELL-BY-CELL FLOW TERM FLAG = 1

 OUTPUT FLAGS FOR ALL LAYERS ARE THE SAME:
   HEAD    DRAWDOWN  HEAD  DRAWDOWN
 PRINTOUT  PRINTOUT  SAVE    SAVE
 ----------------------------------
[...]
 STRESS PERIOD=   1 TIMESTEP=  956 LAYER=   1 ZONE=   3 ACTIVE CELLS=   47 NUMBER OF EQUATIONS=      47
 
 SOLVING FOR HEAD 


 HEAD/DRAWDOWN PRINTOUT FLAG = 1     TOTAL BUDGET PRINTOUT FLAG = 0
 CELL-BY-CELL FLOW TERM FLAG = 1

 OUTPUT FLAGS FOR ALL LAYERS ARE THE SAME:
   HEAD    DRAWDOWN  HEAD  DRAWDOWN
 PRINTOUT  PRINTOUT  SAVE    SAVE
 ----------------------------------
     0         0       0       0
 SOLVING FOR ZETA FOR LAYER     1 ZONE     2

      24 UPPER PART EQS.        23 LOWER PART EQS.    BAND WIDTH + 1 =      2
 STRESS PERIOD=   1 TIMESTEP=  989 LAYER=   1 ZONE=   2 ACTIVE CELLS=   47 NUMBER OF EQUATIONS=      47
 SOLVING FOR ZETA FOR LAYER     1 ZONE     3

      23 UPPER PART EQS.        24 LOWER PART EQS.    BAND WIDTH + 1 =      2
 STRESS PERIOD=   1 TIMESTEP=  989 LAYER=   1 ZONE=   3 ACTIVE CELLS=   47 NUMBER OF EQUATIONS=      47
 
 SOLVING FOR HEAD 


Solver Convergence Information:
                              HClose:  1.1102230E-16
                              RClose:  3.5527137E-15
                           L2-RClose:  8.9893792E-15
                         Rel-Vol-Err:  0.0
 

 HEAD/DRAWDOWN PRINTOUT FLAG = 1     TOTAL BUDGET PRINTOUT FLAG = 0
 CELL-BY-CELL FLOW TERM FLAG = 1

 OUTPUT FLAGS FOR ALL LAYERS ARE THE SAME:
   HEAD    DRAWDOWN  HEAD  DRAWDOWN
 PRINTOUT  PRINTOUT  SAVE    SAVE
 ----------------------------------
     0         0       0       0
 SOLVING FOR ZETA FOR LAYER     1 ZONE     2

      24 UPPER PART EQS.        23 LOWER PART EQS.    BAND WIDTH + 1 =      2
 STRESS PERIOD=   1 TIMESTEP=  990 LAYER=   1 ZONE=   2 ACTIVE CELLS=   47 NUMBER OF EQUATIONS=      47
 SOLVING FOR ZETA FOR LAYER     1 ZONE     3

      23 UPPER PART EQS.        24 LOWER PART EQS.    BAND WIDTH + 1 =      2
 STRESS PERIOD=   1 TIMESTEP=  990 LAYER=   1 ZONE=   3 ACTIVE CELLS=   47 NUMBER OF EQUATIONS=      47
 
 SOLVING FOR HEAD 


Solver Convergence Information:
                              HClose:  0.0
                              RClose:  3.5527137E-15
                           L2-RClose:  6.9546412E-15
                         Rel-Vol-Err:  0.0
 

 HEAD/DRAWDOWN PRINTOUT FLAG = 1     TOTAL BUDGET PRINTOUT FLAG = 0
 CELL-BY-CELL FLOW TERM FLAG = 1

 OUTPUT FLAGS FOR ALL LAYERS ARE THE SAME:
   HEAD    DRAWDOWN  HEAD  DRAWDOWN
 PRINTOUT  PRINTOUT  SAVE    SAVE
 ----------------------------------
     0         0       0       0
 SOLVING FOR ZETA FOR LAYER     1 ZONE     2

      24 UPPER PART EQS.        23 LOWER PART EQS.    BAND WIDTH + 1 =      2
 STRESS PERIOD=   1 TIMESTEP=  991 LAYER=   1 ZONE=   2 ACTIVE CELLS=   47 NUMBER OF EQUATIONS=      47
 SOLVING FOR ZETA FOR LAYER     1 ZONE     3

      23 UPPER PART EQS.        24 LOWER PART EQS.    BAND WIDTH + 1 =      2
 STRESS PERIOD=   1 TIMESTEP=  991 LAYER=   1 ZONE=   3 ACTIVE CELLS=   47 NUMBER OF EQUATIONS=      47
 
 SOLVING FOR HEAD 


Solver Convergence Information:
                              HClose:  0.0
                              RClose:  3.5527137E-15
                           L2-RClose:  1.0558215E-14
                         Rel-Vol-Err:  0.0
 

 HEAD/DRAWDOWN PRINTOUT FLAG = 1     TOTAL BUDGET PRINTOUT FLAG = 0
 CELL-BY-CELL FLOW TERM FLAG = 1

 OUTPUT FLAGS FOR ALL LAYERS ARE THE SAME:
   HEAD    DRAWDOWN  HEAD  DRAWDOWN
 PRINTOUT  PRINTOUT  SAVE    SAVE
 ----------------------------------
     0         0       0       0
 SOLVING FOR ZETA FOR LAYER     1 ZONE     2

      24 UPPER PART EQS.        23 LOWER PART EQS.    BAND WIDTH + 1 =      2
 STRESS PERIOD=   1 TIMESTEP=  992 LAYER=   1 ZONE=   2 ACTIVE CELLS=   47 NUMBER OF EQUATIONS=      47
 SOLVING FOR ZETA FOR LAYER     1 ZONE     3

      23 UPPER PART EQS.        24 LOWER PART EQS.    BAND WIDTH + 1 =      2
 STRESS PERIOD=   1 TIMESTEP=  992 LAYER=   1 ZONE=   3 ACTIVE CELLS=   47 NUMBER OF EQUATIONS=      47
 
 SOLVING FOR HEAD 


Solver Convergence Information:
                              HClose:  6.9388939E-18
                              RClose:  3.5527137E-15
                           L2-RClose:  9.5298275E-15
                         Rel-Vol-Err:  0.0
 

 HEAD/DRAWDOWN PRINTOUT FLAG = 1     TOTAL BUDGET PRINTOUT FLAG = 0
 CELL-BY-CELL FLOW TERM FLAG = 1

 OUTPUT FLAGS FOR ALL LAYERS ARE THE SAME:
   HEAD    DRAWDOWN  HEAD  DRAWDOWN
 PRINTOUT  PRINTOUT  SAVE    SAVE
 ----------------------------------
     0         0       0       0
 SOLVING FOR ZETA FOR LAYER     1 ZONE     2

      24 UPPER PART EQS.        23 LOWER PART EQS.    BAND WIDTH + 1 =      2
 STRESS PERIOD=   1 TIMESTEP=  993 LAYER=   1 ZONE=   2 ACTIVE CELLS=   47 NUMBER OF EQUATIONS=      47
 SOLVING FOR ZETA FOR LAYER     1 ZONE     3

      23 UPPER PART EQS.        24 LOWER PART EQS.    BAND WIDTH + 1 =      2
 STRESS PERIOD=   1 TIMESTEP=  993 LAYER=   1 ZONE=   3 ACTIVE CELLS=   47 NUMBER OF EQUATIONS=      47
 
 SOLVING FOR HEAD 


Solver Convergence Information:
                              HClose:  0.0
                              RClose:  3.5527137E-15
                           L2-RClose:  8.4843124E-15
                         Rel-Vol-Err:  0.0
 

 HEAD/DRAWDOWN PRINTOUT FLAG = 1     TOTAL BUDGET PRINTOUT FLAG = 0
 CELL-BY-CELL FLOW TERM FLAG = 1

 OUTPUT FLAGS FOR ALL LAYERS ARE THE SAME:
   HEAD    DRAWDOWN  HEAD  DRAWDOWN
 PRINTOUT  PRINTOUT  SAVE    SAVE
 ----------------------------------
     0         0       0       0
 SOLVING FOR ZETA FOR LAYER     1 ZONE     2

      24 UPPER PART EQS.        23 LOWER PART EQS.    BAND WIDTH + 1 =      2
 STRESS PERIOD=   1 TIMESTEP=  994 LAYER=   1 ZONE=   2 ACTIVE CELLS=   47 NUMBER OF EQUATIONS=      47
 SOLVING FOR ZETA FOR LAYER     1 ZONE     3

      23 UPPER PART EQS.        24 LOWER PART EQS.    BAND WIDTH + 1 =      2
 STRESS PERIOD=   1 TIMESTEP=  994 LAYER=   1 ZONE=   3 ACTIVE CELLS=   47 NUMBER OF EQUATIONS=      47
 
 SOLVING FOR HEAD 


Solver Convergence Information:
                              HClose:  5.5511151E-17
                              RClose:  3.5527137E-15
                           L2-RClose:  8.7531774E-15
                         Rel-Vol-Err:  0.0
 

 HEAD/DRAWDOWN PRINTOUT FLAG = 1     TOTAL BUDGET PRINTOUT FLAG = 0
 CELL-BY-CELL FLOW TERM FLAG = 1

 OUTPUT FLAGS FOR ALL LAYERS ARE THE SAME:
   HEAD    DRAWDOWN  HEAD  DRAWDOWN
 PRINTOUT  PRINTOUT  SAVE    SAVE
 ----------------------------------
     0         0       0       0
 SOLVING FOR ZETA FOR LAYER     1 ZONE     2

      24 UPPER PART EQS.        23 LOWER PART EQS.    BAND WIDTH + 1 =      2
 STRESS PERIOD=   1 TIMESTEP=  995 LAYER=   1 ZONE=   2 ACTIVE CELLS=   47 NUMBER OF EQUATIONS=      47
 SOLVING FOR ZETA FOR LAYER     1 ZONE     3

      23 UPPER PART EQS.        24 LOWER PART EQS.    BAND WIDTH + 1 =      2
 STRESS PERIOD=   1 TIMESTEP=  995 LAYER=   1 ZONE=   3 ACTIVE CELLS=   47 NUMBER OF EQUATIONS=      47
 
 SOLVING FOR HEAD 


Solver Convergence Information:
                              HClose:  1.1102230E-16
                              RClose:  3.5527137E-15
                           L2-RClose:  6.7678088E-15
                         Rel-Vol-Err:  0.0
 

 HEAD/DRAWDOWN PRINTOUT FLAG = 1     TOTAL BUDGET PRINTOUT FLAG = 0
 CELL-BY-CELL FLOW TERM FLAG = 1

 OUTPUT FLAGS FOR ALL LAYERS ARE THE SAME:
   HEAD    DRAWDOWN  HEAD  DRAWDOWN
 PRINTOUT  PRINTOUT  SAVE    SAVE
 ----------------------------------
     0         0       0       0
 SOLVING FOR ZETA FOR LAYER     1 ZONE     2

      24 UPPER PART EQS.        23 LOWER PART EQS.    BAND WIDTH + 1 =      2
 STRESS PERIOD=   1 TIMESTEP=  996 LAYER=   1 ZONE=   2 ACTIVE CELLS=   47 NUMBER OF EQUATIONS=      47
 SOLVING FOR ZETA FOR LAYER     1 ZONE     3

      23 UPPER PART EQS.        24 LOWER PART EQS.    BAND WIDTH + 1 =      2
 STRESS PERIOD=   1 TIMESTEP=  996 LAYER=   1 ZONE=   3 ACTIVE CELLS=   47 NUMBER OF EQUATIONS=      47
 
 SOLVING FOR HEAD 


Solver Convergence Information:
                              HClose:  1.1102230E-16
                              RClose:  3.5527137E-15
                           L2-RClose:  9.7015961E-15
                         Rel-Vol-Err:  0.0
 

 HEAD/DRAWDOWN PRINTOUT FLAG = 1     TOTAL BUDGET PRINTOUT FLAG = 0
 CELL-BY-CELL FLOW TERM FLAG = 1

 OUTPUT FLAGS FOR ALL LAYERS ARE THE SAME:
   HEAD    DRAWDOWN  HEAD  DRAWDOWN
 PRINTOUT  PRINTOUT  SAVE    SAVE
 ----------------------------------
     0         0       0       0
 SOLVING FOR ZETA FOR LAYER     1 ZONE     2

      24 UPPER PART EQS.        23 LOWER PART EQS.    BAND WIDTH + 1 =      2
 STRESS PERIOD=   1 TIMESTEP=  997 LAYER=   1 ZONE=   2 ACTIVE CELLS=   47 NUMBER OF EQUATIONS=      47
 SOLVING FOR ZETA FOR LAYER     1 ZONE     3

      23 UPPER PART EQS.        24 LOWER PART EQS.    BAND WIDTH + 1 =      2
 STRESS PERIOD=   1 TIMESTEP=  997 LAYER=   1 ZONE=   3 ACTIVE CELLS=   47 NUMBER OF EQUATIONS=      47
 
 SOLVING FOR HEAD 


Solver Convergence Information:
                              HClose:  1.1102230E-16
                              RClose:  3.5527137E-15
                           L2-RClose:  1.0051045E-14
                         Rel-Vol-Err:  0.0
 

 HEAD/DRAWDOWN PRINTOUT FLAG = 1     TOTAL BUDGET PRINTOUT FLAG = 0
 CELL-BY-CELL FLOW TERM FLAG = 1

 OUTPUT FLAGS FOR ALL LAYERS ARE THE SAME:
   HEAD    DRAWDOWN  HEAD  DRAWDOWN
 PRINTOUT  PRINTOUT  SAVE    SAVE
 ----------------------------------
     0         0       0       0
 SOLVING FOR ZETA FOR LAYER     1 ZONE     2

      24 UPPER PART EQS.        23 LOWER PART EQS.    BAND WIDTH + 1 =      2
 STRESS PERIOD=   1 TIMESTEP=  998 LAYER=   1 ZONE=   2 ACTIVE CELLS=   47 NUMBER OF EQUATIONS=      47
 SOLVING FOR ZETA FOR LAYER     1 ZONE     3

      23 UPPER PART EQS.        24 LOWER PART EQS.    BAND WIDTH + 1 =      2
 STRESS PERIOD=   1 TIMESTEP=  998 LAYER=   1 ZONE=   3 ACTIVE CELLS=   47 NUMBER OF EQUATIONS=      47
 
 SOLVING FOR HEAD 


Solver Convergence Information:
                              HClose:  5.5511151E-17
                              RClose:  3.5527137E-15
                           L2-RClose:  5.2026714E-15
                         Rel-Vol-Err:  0.0
 

 HEAD/DRAWDOWN PRINTOUT FLAG = 1     TOTAL BUDGET PRINTOUT FLAG = 0
 CELL-BY-CELL FLOW TERM FLAG = 1

 OUTPUT FLAGS FOR ALL LAYERS ARE THE SAME:
   HEAD    DRAWDOWN  HEAD  DRAWDOWN
 PRINTOUT  PRINTOUT  SAVE    SAVE
 ----------------------------------
     0         0       0       0
 SOLVING FOR ZETA FOR LAYER     1 ZONE     2

      24 UPPER PART EQS.        23 LOWER PART EQS.    BAND WIDTH + 1 =      2
 STRESS PERIOD=   1 TIMESTEP=  999 LAYER=   1 ZONE=   2 ACTIVE CELLS=   47 NUMBER OF EQUATIONS=      47
 SOLVING FOR ZETA FOR LAYER     1 ZONE     3

      23 UPPER PART EQS.        24 LOWER PART EQS.    BAND WIDTH + 1 =      2
 STRESS PERIOD=   1 TIMESTEP=  999 LAYER=   1 ZONE=   3 ACTIVE CELLS=   47 NUMBER OF EQUATIONS=      47
 
 SOLVING FOR HEAD 


Solver Convergence Information:
                              HClose:  5.5511151E-17
                              RClose:  3.5527137E-15
                           L2-RClose:  7.1192916E-15
                         Rel-Vol-Err:  0.0
 

 HEAD/DRAWDOWN PRINTOUT FLAG = 1     TOTAL BUDGET PRINTOUT FLAG = 0
 CELL-BY-CELL FLOW TERM FLAG = 1

 OUTPUT FLAGS FOR ALL LAYERS ARE THE SAME:
   HEAD    DRAWDOWN  HEAD  DRAWDOWN
 PRINTOUT  PRINTOUT  SAVE    SAVE
 ----------------------------------
     0         0       1       0
 SOLVING FOR ZETA FOR LAYER     1 ZONE     2

      24 UPPER PART EQS.        23 LOWER PART EQS.    BAND WIDTH + 1 =      2
 STRESS PERIOD=   1 TIMESTEP= 1000 LAYER=   1 ZONE=   2 ACTIVE CELLS=   47 NUMBER OF EQUATIONS=      47
 SOLVING FOR ZETA FOR LAYER     1 ZONE     3

      23 UPPER PART EQS.        24 LOWER PART EQS.    BAND WIDTH + 1 =      2
 STRESS PERIOD=   1 TIMESTEP= 1000 LAYER=   1 ZONE=   3 ACTIVE CELLS=   47 NUMBER OF EQUATIONS=      47
 UBUDSV SAVING "      ZETASRF  1" ON UNIT 55 AT TIME STEP 1000, STRESS PERIOD 1
 UBUDSV SAVING "      ZETASRF  2" ON UNIT 55 AT TIME STEP 1000, STRESS PERIOD 1


                      VOLUMETRIC SWI ZONE BUDGET FOR ENTIRE MODEL
                     AT END OF TIME STEP 1000 IN STRESS PERIOD   1
                                      ZONE     1
  -----------------------------------------------------------------------------------

        CUMULATIVE VOLUMES      L**3       RATES FOR THIS TIME STEP      L**3/T
        ------------------                 ------------------------

              IN:                                      IN:
              ---                                      ---
             BOUNDARIES =           0.0000            BOUNDARIES =           0.0000
          CONSTANT HEAD =           0.0000         CONSTANT HEAD =           0.0000
            ZONE CHANGE =         195.7901           ZONE CHANGE =       6.5235E-02
       ZONE CHG TIP/TOE =           1.9500      ZONE CHG TIP/TOE =           0.0000
            ZONE MIXING =           0.0000           ZONE MIXING =           0.0000

               TOTAL IN =         197.7401              TOTAL IN =       6.5235E-02

             OUT:                                     OUT:
             ----                                     ----
             BOUNDARIES =           0.0000            BOUNDARIES =           0.0000
          CONSTANT HEAD =           0.0000         CONSTANT HEAD =           0.0000
            ZONE CHANGE =         195.7901           ZONE CHANGE =       6.5235E-02
       ZONE CHG TIP/TOE =           1.9500      ZONE CHG TIP/TOE =           0.0000
            ZONE MIXING =           0.0000           ZONE MIXING =           0.0000

              TOTAL OUT =         197.7401             TOTAL OUT =       6.5235E-02

               IN - OUT =       3.6948E-13              IN - OUT =       8.0491E-15

    PERCENT DISCREPANCY =           0.00     PERCENT DISCREPANCY =           0.00



                      VOLUMETRIC SWI ZONE BUDGET FOR ENTIRE MODEL
                     AT END OF TIME STEP 1000 IN STRESS PERIOD   1
                                      ZONE     2
  -----------------------------------------------------------------------------------

        CUMULATIVE VOLUMES      L**3       RATES FOR THIS TIME STEP      L**3/T
        ------------------                 ------------------------

              IN:                                      IN:
              ---                                      ---
             BOUNDARIES =           0.0000            BOUNDARIES =           0.0000
          CONSTANT HEAD =           0.0000         CONSTANT HEAD =           0.0000
            ZONE CHANGE =         256.2885           ZONE CHANGE =       4.4660E-02
       ZONE CHG TIP/TOE =           3.8000      ZONE CHG TIP/TOE =           0.0000
            ZONE MIXING =           0.0000           ZONE MIXING =           0.0000

               TOTAL IN =         260.0885              TOTAL IN =       4.4660E-02

             OUT:                                     OUT:
             ----                                     ----
             BOUNDARIES =           0.0000            BOUNDARIES =           0.0000
          CONSTANT HEAD =           0.0000         CONSTANT HEAD =           0.0000
            ZONE CHANGE =         256.2885           ZONE CHANGE =       4.4660E-02
       ZONE CHG TIP/TOE =           3.8000      ZONE CHG TIP/TOE =           0.0000
            ZONE MIXING =           0.0000           ZONE MIXING =           0.0000

              TOTAL OUT =         260.0885             TOTAL OUT =       4.4660E-02

               IN - OUT =       1.3642E-12              IN - OUT =      -3.8525E-14

    PERCENT DISCREPANCY =           0.00     PERCENT DISCREPANCY =          -0.00



                      VOLUMETRIC SWI ZONE BUDGET FOR ENTIRE MODEL
                     AT END OF TIME STEP 1000 IN STRESS PERIOD   1
                                      ZONE     3
  -----------------------------------------------------------------------------------

        CUMULATIVE VOLUMES      L**3       RATES FOR THIS TIME STEP      L**3/T
        ------------------                 ------------------------

              IN:                                      IN:
              ---                                      ---
             BOUNDARIES =           0.0000            BOUNDARIES =           0.0000
          CONSTANT HEAD =       6.2172E-15         CONSTANT HEAD =           0.0000
            ZONE CHANGE =         195.8231           ZONE CHANGE =       6.5235E-02
       ZONE CHG TIP/TOE =           1.9500      ZONE CHG TIP/TOE =           0.0000
            ZONE MIXING =           0.0000           ZONE MIXING =           0.0000

               TOTAL IN =         197.7731              TOTAL IN =       6.5235E-02

             OUT:                                     OUT:
             ----                                     ----
             BOUNDARIES =           0.0000            BOUNDARIES =           0.0000
          CONSTANT HEAD =       5.5511E-15         CONSTANT HEAD =           0.0000
            ZONE CHANGE =         195.8231           ZONE CHANGE =       6.5235E-02
       ZONE CHG TIP/TOE =           1.9500      ZONE CHG TIP/TOE =           0.0000
            ZONE MIXING =           0.0000           ZONE MIXING =           0.0000

              TOTAL OUT =         197.7731             TOTAL OUT =       6.5235E-02

               IN - OUT =      -9.6634E-13              IN - OUT =       2.8533E-14

    PERCENT DISCREPANCY =          -0.00     PERCENT DISCREPANCY =           0.00


 HEAD WILL BE SAVED ON UNIT   51 AT END OF TIME STEP  1000 IN STRESS PERIOD      1



  -------------------------------------------------------------------------------------
  VOLUMETRIC BUDGET FOR ENTIRE MODEL AT END OF TIME STEP 1000 IN STRESS PERIOD      1
  -------------------------------------------------------------------------------------

     CUMULATIVE VOLUMES      L**3       RATES FOR THIS TIME STEP      L**3/T
     ------------------                 ------------------------

           IN:                                      IN:
           ---                                      ---
             STORAGE =           0.0000               STORAGE =           0.0000
       CONSTANT HEAD =       6.2172E-15         CONSTANT HEAD =           0.0000
          SWIADDTOCH =           0.0000            SWIADDTOCH =           0.0000

            TOTAL IN =       6.2172E-15              TOTAL IN =           0.0000

          OUT:                                     OUT:
          ----                                     ----
             STORAGE =           0.0000               STORAGE =           0.0000
       CONSTANT HEAD =       5.5511E-15         CONSTANT HEAD =           0.0000
          SWIADDTOCH =           0.0000            SWIADDTOCH =           0.0000

           TOTAL OUT =       5.5511E-15             TOTAL OUT =           0.0000

            IN - OUT =       6.6613E-16              IN - OUT =           0.0000

 PERCENT DISCREPANCY =           0.00     PERCENT DISCREPANCY =           0.00


          TIME SUMMARY AT END OF TIME STEP  1000 IN STRESS PERIOD      1
                    SECONDS     MINUTES      HOURS       DAYS        YEARS
                    -----------------------------------------------------------
   TIME STEP LENGTH 1.72800E+05  2880.0      48.000      2.0000     5.47570E-03
 STRESS PERIOD TIME 1.72800E+08 2.88000E+06  48000.      2000.0      5.4757    
         TOTAL TIME 1.72800E+08 2.88000E+06  48000.      2000.0      5.4757    
 

 Final Remark:

   The solver successfully met the user supplied convergence criteria, HCLOSE and RCLOSE, for all 1000 time steps.

   Please check the "VOLUMETRIC BUDGET FOR ENTIRE MODEL" to ensure that mass rate balance errors are acceptable for all time steps.

   The cumulative mass error for the entire simulation is 0.00 %




 Simulation finished at  


 Which had an elapsed run time of: 0.0 seconds


    OneWater Simulation Now Complete


