💧🧙💦🌊  <-These symbols help text editors identify file as Unicode UTF8.
                    UTF8 is not necessary to view numerical results, but no UTF8 support can have artifacts where non-ascii symbols are used (such as the degree symbol).


MODFLOW-OWHM v2.2.0

      MMMMMMM                                       MM      MMM     MM
    MMM     MMM    MM      M   MMMMMMMM             LM     DM M     ML     MM     MMMMMMMMM  MMMMMMMM  MMMMMMMM
   MM         MM   MMM     M   MM                    MM    MM M     M     MMMM        M      M         MM     NM
   MM         MM   MM M    M   MM                    MM    M  MM   MM    MM  MM       M      M         MM      M
   MM         MM   MM  M   M   MMMMMMMM               MN  MM   M   MM   MM    MM      M      MMMMMMM   MMMMMMMMM
   MM         MM   MM   M  M   MM         MMMMMMM     MM  M    MM MM    MMMMMMMM      M      M         MM   MM
   MM         MM   MM    M M   MM                     LM MM    NM MM   MM      MM     M      M         MM    MM
    MM       NM    MM     MM   MM                      M M      M M   MN        MM    M      M         MM     MM
     MMMMMMMMN     MM      M   MMMMMMMM                7MM      7MM  MN          MM   M      MMMMMMMM  MM      MM


                        MODFLOW
            ONE-WATER HYDROLOGIC-FLOW MODEL

    U.S. Geological Survey Modular Finite-Difference
           Conjunctive Use Simulation Program

                      Version 2.2

 Release: 0

 Includes the following base versions with enhancements:

          MODFLOW-2005 Version 1.12
          MODFLOW-FMP  Version 4.1
          MODFLOW-SWR  Version 1.04
          MODFLOW-SWI  Version 2.0
          MODFLOW-LGR  Version 2.0
          MODFLOW-NWT  Version 1.2
          MODFLOW-CFP  Version 1.09.57
                  SWO  Version 1.0

------------------------------------------------------------------------------------
USGS Software Disclaimer:                                                          |
                                                                                   |
   No warranty, expressed or implied, is made by the USGS or the U.S. Government   |
   as to the functionality of the software and related material nor shall the      |
   fact of release constitute any such warranty.                                   |
                                                                                   |
   The software is provided on the condition that neither the USGS nor             |
   the U.S. Government shall be held liable for any damages resulting from the     |
   authorized or unauthorized use of the software.                                 |
                                                                                   |
   Newer versions may be present at the official code and download repository:     |
      https://code.usgs.gov/modflow/mf-owhm                                        |
                                                                                   |
------------------------------------------------------------------------------------

∙∙∙∙∙∙∙∙∙∙∙∙∙∙∙∙∙∙∙∙∙∙∙∙∙∙∙∙∙∙∙∙∙∙∙∙∙∙∙∙∙∙∙∙∙∙∙∙∙∙∙∙∙∙∙∙∙∙∙∙∙∙
    OneWater Simulation Initiated at  
∙∙∙∙∙∙∙∙∙∙∙∙∙∙∙∙∙∙∙∙∙∙∙∙∙∙∙∙∙∙∙∙∙∙∙∙∙∙∙∙∙∙∙∙∙∙∙∙∙∙∙∙∙∙∙∙∙∙∙∙∙∙


 LIST FILE: ./output/etsdrt.lst
      UNIT: 12

OPENING PACKAGES

DIS  PACKAGE OPENED.
BAS6 PACKAGE OPENED.
OC   PACKAGE OPENED.
LPF  PACKAGE OPENED.
DRT  PACKAGE OPENED.
RCH  PACKAGE OPENED.
ETS  PACKAGE OPENED.
PCG  PACKAGE OPENED.
PVAL PACKAGE OPENED.

NOTIFICATION: A FILE UNIT NUMBER WAS FOUND FOR EITHER THE LIST FILE OR A PACAKGE.
IT WILL BE USED EVEN THOUGH UNIT NUMBERS FOR THE LIST FILE AND PACKAGES ARE NOW OPTIONAL.
[IT IS RECOMMENDED TO STILL USE A UNIT NUMBER FOR DATA and DATA(BINARY) ]


 BAS -- BASIC PACKAGE, VERSION OWHM INPUT READ FROM UNIT    31
 
MODFLOW was compiled using uniform precision (Precision => Number of meaningful digits in numbers)
Precision of REAL and DOUBLE PRECISION variables: 15

 DISCRETIZATION INPUT DATA READ FROM UNIT   21

-- READING DIS PACKAGE INPUT --

# etsdrt
# MODFLOW-2005 Example problem documented in:
#   Harbaugh, A.W., 2005, MODFLOW-2005, the U.S. Geological Survey modular ground-water model -- the Ground-Water Flow Process: U.S. Geological Survey Techniques and Methods 6-A16.
#   Harbaugh, A.W., Banta, E.R., Hill, M.C. and McDonald, M.G., 2000, MODFLOW-2000, The U.S. Geological Survey Modular Ground-Water Model - User Guide to Modularization Concepts and the Ground-Water Flow Process: U.S Geological Survey Open-File Report 2000-92, 121 p., https://doi.org/10.3133/ofr200092
#   Banta, E.R., 2000, MODFLOW-2000, the U.S. Geological Survey Modular Ground-Water Model - Documentation of Packages for Simulating Evapotranspiration with a Segmented Function (ETS1) and Drains with Return Flow (DRT1): U.S. Geological Survey Open-File Report 00-466, 127 p.
#
#      -Comments are preceded by a # sign
#
#-----------------------------------------------------------------------------------------------------------------------------------------------------
# DIS file for ets1, drt1, and etsdrt test cases.  Units: Days, Feet


*** DIS COORDINATE SYSTEM NOT SEPECIFIED ***
DEFAULT VALUES APPLIED ARE 0° ROTATION
WITH THE ORIGIN (0,0) LOCATED AT THE MODEL'S LOWER LEFT CORNER




DIS COORDINATE SYSTEM SEPECIFIED WITH:
GRID ROTATION OF 0.0°
WITH THE ORIGIN LOCATED AT THE OUTER MOST CORNER OF MODEL CELL [11,1] WITH:
X-COORDINATE:0.0
Y-COORDINATE:0.0
    1 LAYERS        11 ROWS        11 COLUMNS
      1 STRESS PERIOD(S) IN SIMULATION
 MODEL TIME UNIT IS DAYS
 MODEL LENGTH UNIT IS FEET
  Confining bed flag for each layer:
   0

                     DELR =   100.000    

                     DELC =   100.000    

 TOP ELEVATION OF LAYER 1 =   100.000    

   MODEL LAYER BOTTOM EL. =   0.00000     FOR LAYER   1


 STRESS PERIOD     LENGTH       TIME STEPS     MULTIPLIER FOR DELT    SS FLAG  (OPTIONAL TIME STEP LENGTH)
 ---------------------------------------------------------------------------------------------------
        1         0.000000          1                  1.00000         SS

 STEADY-STATE SIMULATION




-- READING BAS PACKAGE INPUT --

# etsdrt
# MODFLOW-2005 Example problem documented in:
#   Harbaugh, A.W., 2005, MODFLOW-2005, the U.S. Geological Survey modular ground-water model -- the Ground-Water Flow Process: U.S. Geological Survey Techniques and Methods 6-A16.
#   Harbaugh, A.W., Banta, E.R., Hill, M.C. and McDonald, M.G., 2000, MODFLOW-2000, The U.S. Geological Survey Modular Ground-Water Model - User Guide to Modularization Concepts and the Ground-Water Flow Process: U.S Geological Survey Open-File Report 2000-92, 121 p., https://doi.org/10.3133/ofr200092
#   Banta, E.R., 2000, MODFLOW-2000, the U.S. Geological Survey Modular Ground-Water Model - Documentation of Packages for Simulating Evapotranspiration with a Segmented Function (ETS1) and Drains with Return Flow (DRT1): U.S. Geological Survey Open-File Report 00-466, 127 p.
#
# Input modified for MODFLOW-OWHM by including the BAS options:
#    BUDGETDB ./output/etsdrt_VolumetricBudget.txt  CUMULATIVE_HEAD_CHANGE ./output/etsdrt_CumHCHG.txt  PRINT_HEAD NPER ./output/etsdrt_Head.txt
#
#-----------------------------------------------------------------------------------------------------------------------------------------------------
#
# BAS file for ets1, drt1, and etsdrt test cases


 THE BAS PACKAGE NOW DEFAULTS TO FREE FORMAT.
 USE OPTION "NOFREE" TO DISABLE FREE FORMAT.



########################################################################################################

                           WARNING_MESSAGE

         THE FOLLOWING COMMENTS WERE PASSED TO THE WARNING ROUTINE

THE WARNING IS BELIEVED TO HAVE ORIGINATED FROM THE FOLLOWING FILE:
"examples\mf-2005\etsdrt.bas"

THE GUESSED LINE THAT THE WARNING OCCURED ON IS:
"free  BUDGETDB ./output/etsdrt_VolumetricBudget.txt  CUMULATIVE_HEAD_CHANGE ./output/etsdrt_CumHCHG.txt  PRINT_HEAD NPER ./output/etsdrt_Head.txt"

THE DESCRIPTION OF THE WARNING IS:

FOUND BAS PACKAGE OPTION KEYWORDS ALONG PACKAGE "OPTIONS LINE" (ie Data Set 1)

The BAS package options should be within an "OPTIONS BLOCK" rather than along the first line of input.

The BAS package will attempt to read the options line, but some advanced options may fail to load due to their complex input,
For example the option "SHIFT_STRT" uses ULOAD to read NLAY shift values, which would crash under certain ULOAD keyword combinations.

Also note that if any of the options specify a GENERIC_OUTPUT file, 
then there may be additional warnings about a BAS OPTION not being a recognized GENERIC_OUTPUT post-keyword.
These warnings can be ignored, since its a post-keyword warning pertaining to the GENERIC_OUTPUT file and 
the BAS OPTION is still processed by the BAS package.

It is recommended for new models to use "BEGIN OPTIONS" and then have one option per line and
end the options block with the word "END" in place of single line of options.

For example:

BEGIN OPTIONS

  START_DATE  4/23/1901
  SHOWPROGRESS
  NOCBC
  BUDGETDB ./output/VolumetricBudget.txt
  PAUSE

END OPTIONS

             - Note that "OPTIONS BLOCK" maybe empty or entirely not present,
               nor is it required to specify an "OPTIONS LINE"

             - DO NOT specify both an "OPTIONS BLOCK" and "OPTIONS LINE" at the same time.

########################################################################################################



 NOW READING BAS OPTIONS

 Found Option: FREE
                 THE FREE FORMAT OPTION HAS BEEN SELECTED
                    -NOTE THIS NOW IS THE DEFAULT AND NOT NECESSARY.

 Found Option: BUDGETDB


########################################################################################################

                           WARNING_MESSAGE

         THE FOLLOWING COMMENTS WERE PASSED TO THE WARNING ROUTINE

THE WARNING IS BELIEVED TO HAVE ORIGINATED FROM THE FOLLOWING FILE:
"examples\mf-2005\etsdrt.bas"

THE GUESSED LINE THAT THE WARNING OCCURED ON IS:
"free  BUDGETDB ./output/etsdrt_VolumetricBudget.txt  CUMULATIVE_HEAD_CHANGE ./output/etsdrt_CumHCHG.txt  PRINT_HEAD NPER ./output/etsdrt_Head.txt"

THE DESCRIPTION OF THE WARNING IS:

...CHECK_FOR_POST_KEY WARNINGS...
 THE FOLLOWING MESSAGES WERE PASSED WHILE CHECKING FOR ANY ADDITIONAL KEYWORDS ON LOADED LINE.


FAILED TO IDENTIFY THE FOLLOWING POST-KEYWORD: 

"CUMULATIVE_HEAD_CHANGE"

IT WILL BE IGNORED AND NO FURTHER KEYWORDS WILL BE CHECKED/INCLUDED TO THE RIGHT OF IT.
TO SUPRESS THIS WARNING PLEASE PLACE A "#" SYMBOL TO THE LEFT OF THE WORD TO INDICATE EVERYTHING TO THE RIGHT OF THE # IS A COMMENT

########################################################################################################




 Found Option: CUMULATIVE_HEAD_CHANGE
                 Cumulative sum of absolute head differences for the entire model.
                 This is a diagnostic feature meant for comparing MF-OWHM code versions with the same model input (software unit test).


########################################################################################################

                           WARNING_MESSAGE

         THE FOLLOWING COMMENTS WERE PASSED TO THE WARNING ROUTINE

THE WARNING IS BELIEVED TO HAVE ORIGINATED FROM THE FOLLOWING FILE:
"examples\mf-2005\etsdrt.bas"

THE GUESSED LINE THAT THE WARNING OCCURED ON IS:
"free  BUDGETDB ./output/etsdrt_VolumetricBudget.txt  CUMULATIVE_HEAD_CHANGE ./output/etsdrt_CumHCHG.txt  PRINT_HEAD NPER ./output/etsdrt_Head.txt"

THE DESCRIPTION OF THE WARNING IS:

...CHECK_FOR_POST_KEY WARNINGS...
 THE FOLLOWING MESSAGES WERE PASSED WHILE CHECKING FOR ANY ADDITIONAL KEYWORDS ON LOADED LINE.


FAILED TO IDENTIFY THE FOLLOWING POST-KEYWORD: 

"PRINT_HEAD"

IT WILL BE IGNORED AND NO FURTHER KEYWORDS WILL BE CHECKED/INCLUDED TO THE RIGHT OF IT.
TO SUPRESS THIS WARNING PLEASE PLACE A "#" SYMBOL TO THE LEFT OF THE WORD TO INDICATE EVERYTHING TO THE RIGHT OF THE # IS A COMMENT

########################################################################################################




 Found Option: PRINT_HEAD
                 NPER ./output/etsdrt_Head.txt


 Setting up PRINT_HEAD option for 
    SP    TS   FILE
     1     1   ./output/etsdrt_Head.txt

 The total simulation limit for the number PARAMETERs defined is: 
     Max number of PARAMETERs (MXPAR)  is       2000
     Max number of INSTANCEs  (MXINST) is      50000
     Max number of CLUSTERs   (MXCLST) is    2000000




                     BOUNDARY ARRAY FOR LAYER   1
 READING ON UNIT   31 WITH FORMAT: (FREE)              

 AQUIFER HEAD WILL BE SET TO -999.0 AT ALL NO-FLOW NODES (IBOUND=0).




                       INITIAL HEAD FOR LAYER   1
 READING ON UNIT   31 WITH FORMAT: (FREE)              

-- READING OC PACKAGE INPUT --

# etsdrt
# MODFLOW-2005 Example problem documented in:
#   Harbaugh, A.W., 2005, MODFLOW-2005, the U.S. Geological Survey modular ground-water model -- the Ground-Water Flow Process: U.S. Geological Survey Techniques and Methods 6-A16.
#   Harbaugh, A.W., Banta, E.R., Hill, M.C. and McDonald, M.G., 2000, MODFLOW-2000, The U.S. Geological Survey Modular Ground-Water Model - User Guide to Modularization Concepts and the Ground-Water Flow Process: U.S Geological Survey Open-File Report 2000-92, 121 p., https://doi.org/10.3133/ofr200092
#   Banta, E.R., 2000, MODFLOW-2000, the U.S. Geological Survey Modular Ground-Water Model - Documentation of Packages for Simulating Evapotranspiration with a Segmented Function (ETS1) and Drains with Return Flow (DRT1): U.S. Geological Survey Open-File Report 00-466, 127 p.
#
#-----------------------------------------------------------------------------------------------------------------------------------------------------
# OC file for ets1, drt1, and etsdrt test cases


 OUTPUT CONTROL IS SPECIFIED ONLY AT TIME STEPS FOR WHICH OUTPUT IS DESIRED
 HEAD PRINT FORMAT CODE IS   8    DRAWDOWN PRINT FORMAT CODE IS   0
 HEADS WILL BE SAVED ON UNIT    0    DRAWDOWNS WILL BE SAVED ON UNIT    0  WATER BUDGETs WILL BE SAVED ON UNIT 

 PARAMETER VALUE INPUT FILE,  INPUT READ FROM UNIT 45

-- READING PVAL PACKAGE INPUT --

# etsdrt
# MODFLOW-2005 Example problem documented in:
#   Harbaugh, A.W., 2005, MODFLOW-2005, the U.S. Geological Survey modular ground-water model -- the Ground-Water Flow Process: U.S. Geological Survey Techniques and Methods 6-A16.
#   Harbaugh, A.W., Banta, E.R., Hill, M.C. and McDonald, M.G., 2000, MODFLOW-2000, The U.S. Geological Survey Modular Ground-Water Model - User Guide to Modularization Concepts and the Ground-Water Flow Process: U.S Geological Survey Open-File Report 2000-92, 121 p., https://doi.org/10.3133/ofr200092
#   Banta, E.R., 2000, MODFLOW-2000, the U.S. Geological Survey Modular Ground-Water Model - Documentation of Packages for Simulating Evapotranspiration with a Segmented Function (ETS1) and Drains with Return Flow (DRT1): U.S. Geological Survey Open-File Report 00-466, 127 p.
#
#-----------------------------------------------------------------------------------------------------------------------------------------------------
# PVAL file for etsdrt test case


 NUMBER OF PARAMETER VALUES TO BE READ FROM PARAMETER VALUE FILE:    4

 INFORMATION ON PARAMETERS LISTED IN PARAMETER FILE
               VALUE IN
    NAME     PARAMETER FILE
 ----------  --------------
 ETS-Max      0.10000E-01
 DRT-Cond      2.0000    
 Recharge     0.10000E-02
 HydCond      0.50000E-01
 -----------------------------------------------------------------------------
 FOR THE PARAMETERS LISTED IN THE TABLE ABOVE, PARAMETER VALUES IN INDIVIDUAL
 PACKAGE INPUT FILES ARE REPLACED BY THE VALUES FROM THE PARAMETER INPUT FILE.

 LPF -- LAYER-PROPERTY FLOW PACKAGE, VERSION OWHM
         INPUT READ FROM UNIT   33

-- READING LPF PACKAGE INPUT --

# etsdrt
# MODFLOW-2005 Example problem documented in:
#   Harbaugh, A.W., 2005, MODFLOW-2005, the U.S. Geological Survey modular ground-water model -- the Ground-Water Flow Process: U.S. Geological Survey Techniques and Methods 6-A16.
#   Harbaugh, A.W., Banta, E.R., Hill, M.C. and McDonald, M.G., 2000, MODFLOW-2000, The U.S. Geological Survey Modular Ground-Water Model - User Guide to Modularization Concepts and the Ground-Water Flow Process: U.S Geological Survey Open-File Report 2000-92, 121 p., https://doi.org/10.3133/ofr200092
#   Banta, E.R., 2000, MODFLOW-2000, the U.S. Geological Survey Modular Ground-Water Model - Documentation of Packages for Simulating Evapotranspiration with a Segmented Function (ETS1) and Drains with Return Flow (DRT1): U.S. Geological Survey Open-File Report 00-466, 127 p.
#
#      -Comments are preceded by a # sign
#
#-----------------------------------------------------------------------------------------------------------------------------------------------------
# LPF file for etsdrt test case

 HEAD AT CELLS THAT CONVERT TO DRY=  0.00000E+00
     1 Named Parameters     

   LAYER FLAGS:
 LAYER       LAYTYP        LAYAVG         CHANI        LAYVKA        LAYWET
 ---------------------------------------------------------------------------
    1             1             0     1.000E+00             0             0

   INTERPRETATION OF LAYER FLAGS:
                        INTERBLOCK     HORIZONTAL    DATA IN
         LAYER TYPE   TRANSMISSIVITY   ANISOTROPY   ARRAY VKA   WETTABILITY
 LAYER      (LAYTYP)      (LAYAVG)       (CHANI)      (LAYVKA)      (LAYWET)
 ---------------------------------------------------------------------------
    1   CONVERTIBLE      HARMONIC     1.000E+00    VERTICAL K  NON-WETTABLE

 WETTING CAPABILITY IS NOT ACTIVE IN ANY LAYER

 PARAMETERS DEFINED IN THE LPF PACKAGE

 PARAMETER NAME:HydCond                TYPE:HK     CLUSTERS:   1
 Parameter value from package file is: 0.05
                LAYER:   1    MULTIPLIER ARRAY: NONE    ZONE ARRAY: ALL

    HYD. COND. ALONG ROWS FOR LAYER   1 WILL BE DEFINED BY PARAMETERS
 (PRINT FLAG=  -1)

    HYD. COND. ALONG ROWS is defined by the following parameters:
 HydCond             

    HYD. COND. ALONG ROWS =  5.000000E-02 FOR LAYER   1

      VERTICAL HYD. COND. =  1.000000E-02 FOR LAYER   1

 RCH -- RECHARGE PACKAGE, VERSION OWHM INPUT READ FROM UNIT   36

-- READING RCH PACKAGE INPUT --

# etsdrt
# MODFLOW-2005 Example problem documented in:
#   Harbaugh, A.W., 2005, MODFLOW-2005, the U.S. Geological Survey modular ground-water model -- the Ground-Water Flow Process: U.S. Geological Survey Techniques and Methods 6-A16.
#   Harbaugh, A.W., Banta, E.R., Hill, M.C. and McDonald, M.G., 2000, MODFLOW-2000, The U.S. Geological Survey Modular Ground-Water Model - User Guide to Modularization Concepts and the Ground-Water Flow Process: U.S Geological Survey Open-File Report 2000
#   Banta, E.R., 2000, MODFLOW-2000, the U.S. Geological Survey Modular Ground-Water Model - Documentation of Packages for Simulating Evapotranspiration with a Segmented Function (ETS1) and Drains with Return Flow (DRT1): U.S. Geological Survey Open-File R
#
#      -Comments are preceded by a # sign
#
#-----------------------------------------------------------------------------------------------------------------------------------------------------
# RCH file for etsdrt test case

     1 Named Parameters     
 OPTION 1 -- RECHARGE TO LAYER 1


     1 Recharge parameters

 PARAMETER NAME:Recharge               TYPE:RCH    CLUSTERS:   1
 Parameter value from package file is: 0.001
                MULTIPLIER ARRAY: none    ZONE ARRAY: all

 ETS7 -- EVAPOTRANSPIRATION SEGMENTS PACKAGE, VERSION OWHM,
         INPUT READ FROM UNIT   37

-- READING ETS PACKAGE INPUT --

# etsdrt
# MODFLOW-2005 Example problem documented in:
#   Harbaugh, A.W., 2005, MODFLOW-2005, the U.S. Geological Survey modular ground-water model -- the Ground-Water Flow Process: U.S. Geological Survey Techniques and Methods 6-A16.
#   Harbaugh, A.W., Banta, E.R., Hill, M.C. and McDonald, M.G., 2000, MODFLOW-2000, The U.S. Geological Survey Modular Ground-Water Model - User Guide to Modularization Concepts and the Ground-Water Flow Process: U.S Geological Survey Open-File Report 2000-92, 121 p., https://doi.org/10.3133/ofr200092
#   Banta, E.R., 2000, MODFLOW-2000, the U.S. Geological Survey Modular Ground-Water Model - Documentation of Packages for Simulating Evapotranspiration with a Segmented Function (ETS1) and Drains with Return Flow (DRT1): U.S. Geological Survey Open-File Report 00-466, 127 p.
#
#      -Comments are preceded by a # sign
#
#-----------------------------------------------------------------------------------------------------------------------------------------------------
# ETS input file for ets1 and etsdrt test cases

 OPTION 1 -- EVAPOTRANSPIRATION FROM TOP LAYER
 No named parameters
     2 SEGMENTS DEFINE EVAPOTRANSPIRATION RATE FUNCTION


     0 Evapotranspiration segments parameters

 DRT7 -- DRAIN RETURN PACKAGE, VERSION OWHM
 INPUT READ FROM UNIT   34
     1 Named Parameters         1 List entries
 RETURN FLOW OPTION IS SELECTED
 MAXIMUM OF      1 ACTIVE DRAINS WITH RETURN FLOW AT ONE TIME


     1 Drain-return parameters

 PARAMETER NAME:DRT-Cond               TYPE:DRT 
 Parameter value from package file is: 2.0
   NUMBER OF ENTRIES:      1

 DRAIN NO.  LAYER   ROW   COL     DRAIN EL.  STRESS FACTOR         
 ------------------------------------------------------------------
      1      1      5      8       60.00           1.000    

           ----DRAIN CELL----  --RECIPIENT CELL--   RETURN
 DRAIN NO.  LAYER   ROW   COL   LAYER   ROW   COL    PROP.
      1      1      5      8      1      7      3  0.400000

 PCG -- CONJUGATE-GRADIENT SOLUTION PACKAGE, VERSION OWHM

-- READING PCG PACKAGE INPUT --

# etsdrt
# MODFLOW-2005 Example problem documented in:
#   Harbaugh, A.W., 2005, MODFLOW-2005, the U.S. Geological Survey modular ground-water model -- the Ground-Water Flow Process: U.S. Geological Survey Techniques and Methods 6-A16.
#   Harbaugh, A.W., Banta, E.R., Hill, M.C. and McDonald, M.G., 2000, MODFLOW-2000, The U.S. Geological Survey Modular Ground-Water Model - User Guide to Modularization Concepts and the Ground-Water Flow Process: U.S Geological Survey Open-File Report 2000-92, 121 p., https://doi.org/10.3133/ofr200092
#   Banta, E.R., 2000, MODFLOW-2000, the U.S. Geological Survey Modular Ground-Water Model - Documentation of Packages for Simulating Evapotranspiration with a Segmented Function (ETS1) and Drains with Return Flow (DRT1): U.S. Geological Survey Open-File Report 00-466, 127 p.
#
#      -Comments are preceded by a # sign
#
#-----------------------------------------------------------------------------------------------------------------------------------------------------
# PCG file for ets1, drt1, and etsdrt test cases
#

 MAXIMUM OF     60 CALLS OF SOLUTION ROUTINE
 MAXIMUM OF      8 INTERNAL ITERATIONS PER CALL TO SOLUTION ROUTINE
 MATRIX PRECONDITIONING TYPE :    1



                                    SOLUTION BY THE CONJUGATE-GRADIENT METHOD
                                   -------------------------------------------
                    MAXIMUM NUMBER OF CALLS TO PCG ROUTINE =       60
                        MAXIMUM ITERATIONS PER CALL TO PCG =        8
                               MATRIX PRECONDITIONING TYPE =        1
        RELAXATION FACTOR (ONLY USED WITH PRECOND. TYPE 1) =    0.10000E+01
 PARAMETER OF POLYNOMIAL PRECOND. = 2 (2) OR IS CALCULATED :        2
                         HEAD CHANGE CRITERION FOR CLOSURE =    0.10000E-03
                     RESIDUAL CHANGE CRITERION FOR CLOSURE =    0.80000E+02
            PCG HEAD AND RESIDUAL CHANGE PRINTOUT INTERVAL =        1
     PRINTING FROM SOLVER IS LIMITED(1) OR SUPPRESSED (>1) =        0
                            STEADY-STATE DAMPING PARAMETER =    0.10000E+01
                               TRANSIENT DAMPING PARAMETER =    0.10000E+01


########################################################################################################

                           WARNING_MESSAGE

         THE FOLLOWING COMMENTS WERE PASSED TO THE WARNING ROUTINE

THE DESCRIPTION OF THE WARNING IS:

DIS PACKAGE: THE GROUND SURFACE ELEVATION WAS NOT SPECIFIED WITH THE KEYWORD "SURFACE_ELEVATION"

BEFORE LOADING THE "TOP" ARRAY FOR LAYER 1
NOR WAS IT DEFINED WITH ANOTHER PACKAGE   (e.g. FMPs GLOBAL DIMENSION KEYWORD "SURFACE_ELEVATION")

OneWater WILL SET THE GROUND SURFACE ELEVATION (GSE)
TO THE TOP ELEVATION OF THE UPPER MOST ACTIVE CELL OR THE DIS TOP OF LAY1.

NOTE THAT SFR DOES USE GSE FOR ALL DIVERSION SEGMENTS
   WHEN "IRDFLG" IS SET TO 2 or -2.

########################################################################################################



1
                            STRESS PERIOD NO.      1, LENGTH =   0.000000    
                            -----------------------------------------------

                              NUMBER OF TIME STEPS =     1

                               MULTIPLIER FOR DELT =     1.000

                            INITIAL TIME STEP SIZE =   0.000000    


########################################################################################################

                           WARNING_MESSAGE

         THE FOLLOWING COMMENTS WERE PASSED TO THE WARNING ROUTINE

THE DESCRIPTION OF THE WARNING IS:

PVAL OR PACKAGE PARAMETER NAMES WERE DECLAIRED,
BUT WERE NEVER APPLIED TO ANY PACKAGE PROPERTY (ie NEVER ACTUALLY USED).
THE FOLLOWING IS A LIST OF PARAMETER NAMES THAT NEVER WERE USED:
ETS-Max             


########################################################################################################




PARAMETERS HAVE BEEN USED IN PACKAGES

THE CURRENT STORAGE FOR PARAMETERS IS: 
No. PARAMETER=         4 WITH MAX STORAGE (MXPAR)  OF      2000
No. CLUSTERS =         2 WITH MAX STORAGE (MXCLST) OF   2000000
No. INSTANCES=         0 WITH MAX STORAGE (MXINST) OF     50000

YOU CAN INCREASE/DECREASE STORAGE WITH BAS OPTION:
MAXPARAM  MXPAR  MXCLST MXINST

FYI, YOU CAN REDUCE RAM USUAGE WITH BAS OPTION
(NOTE THE THREE NUMBERS ARE A MINUMUM SIZE):
   MAXPARAM          5         3         1




 RECH array defined by the following parameters:
 Parameter:  recharge

                 RECHARGE =  1.000000E-03

        ET SURFACE (ETSS) =   100.000    

  EVAPOTRANS. RATE (ETSR) =  1.000000E-02

  EXTINCTION DEPTH (ETSX) =   36.0000    

 PXDP AND PETM ARRAYS FOR INTERSECTION    1 OF HEAD/ET RELATION:

 EXTINCT. DEP. PROPORTION =  0.500000    

       ET RATE PROPORTION =  0.100000    

 Parameter:  DRT-Cond
 DRAIN NO.  LAYER   ROW   COL     DRAIN EL.  CONDUCTANCE           
 ------------------------------------------------------------------
      1      1      5      8       60.00           2.000    

           ----DRAIN CELL----  --RECIPIENT CELL--   RETURN
 DRAIN NO.  LAYER   ROW   COL   LAYER   ROW   COL    PROP.
      1      1      5      8      1      7      3  0.400000

      1 DRAIN-RETURN CELLS
 
 SOLVING FOR HEAD 


Solver Convergence Information:
                              HClose:  1.4052643E-5
                              RClose:  1.3681081E-5
                           L2-RClose:  5.2662423E-5
                         Rel-Vol-Err:  0.0
 

 OUTPUT CONTROL FOR STRESS PERIOD      1   TIME STEP     1
    PRINT HEAD FOR ALL LAYERS


     6 CALLS TO PCG ROUTINE FOR TIME STEP   1 IN STRESS PERIOD    1
    27 TOTAL ITERATIONS

 MAXIMUM HEAD CHANGE FOR EACH ITERATION (1 INDICATES THE FIRST INNER ITERATION):

    HEAD CHANGE    HEAD CHANGE    HEAD CHANGE    HEAD CHANGE    HEAD CHANGE 
   LAYER,ROW,COL  LAYER,ROW,COL  LAYER,ROW,COL  LAYER,ROW,COL  LAYER,ROW,COL
 ---------------------------------------------------------------------------
  1   14.54      0  -2.044      0  0.3570      0  0.5893E-01  0  0.1407E-01
   (  1,  7,  3)  (  1, 11,  6)  (  1,  2,  3)  (  1,  4,  3)  (  1,  1,  4)
  0  0.1542E-02  0  0.3542E-03  0  0.4758E-04  1  -2.763      0 -0.3205    
   (  1,  6,  4)  (  1,  2,  5)  (  1,  9,  7)  (  1,  7,  3)  (  1,  1,  5)
  0 -0.4377E-01  0  0.9528E-02  0 -0.1749E-02  0 -0.2867E-03  0  0.5129E-04
   (  1,  8,  2)  (  1,  1,  4)  (  1,  2,  6)  (  1,  3,  4)  (  1,  9,  6)
  1  0.6498E-01  0  0.1310E-01  0 -0.2423E-02  0 -0.3766E-03  0 -0.7734E-04
   (  1,  1,  4)  (  1, 11,  3)  (  1,  1,  5)  (  1,  1,  2)  (  1,  2,  2)
  1  0.4840E-02  0  0.1120E-02  0  0.1240E-03  0  0.2487E-04  1 -0.3041E-03
   (  1,  7,  3)  (  1,  1,  4)  (  1,  2,  2)  (  1,  2,  2)  (  1,  7,  3)
  0 -0.5074E-04  1 -0.1405E-04
   (  1,  1,  6)  (  1,  8,  2)

 MAXIMUM RESIDUAL FOR EACH ITERATION (1 INDICATES THE FIRST INNER ITERATION):

    RESIDUAL       RESIDUAL       RESIDUAL       RESIDUAL       RESIDUAL    
   LAYER,ROW,COL  LAYER,ROW,COL  LAYER,ROW,COL  LAYER,ROW,COL  LAYER,ROW,COL
 ---------------------------------------------------------------------------
  1   8.394      0  -1.991      0  0.4503      0 -0.6148E-01  0 -0.1378E-01
   (  1,  1, 10)  (  1,  1,  8)  (  1, 10,  8)  (  1,  3,  4)  (  1, 10,  8)
  0 -0.3129E-02  0  0.3385E-03  0  0.7533E-04  1   1.803      0  0.3007    
   (  1, 10,  8)  (  1,  5,  4)  (  1, 11, 10)  (  1,  8,  2)  (  1,  8,  2)
  0  0.6076E-01  0  0.1247E-01  0  0.2315E-02  0 -0.4078E-03  0 -0.5952E-04
   (  1, 10,  4)  (  1,  2,  6)  (  1,  3,  4)  (  1,  9,  6)  (  1,  2, 10)
  1 -0.7072E-01  0 -0.1417E-01  0 -0.3036E-02  0  0.6486E-03  0 -0.9202E-04
   (  1, 11,  3)  (  1,  2,  4)  (  1,  2,  6)  (  1,  2,  2)  (  1,  9,  6)
  1  0.6171E-02  0  0.1277E-02  0  0.2075E-03  0  0.3383E-04  1  0.2434E-03
   (  1,  3,  8)  (  1,  4,  7)  (  1,  5,  6)  (  1,  1, 10)  (  1, 11,  3)
  0  0.4669E-04  1  0.1368E-04
   (  1,  8,  2)  (  1,  8,  2)


1
              HEAD IN LAYER   1 AT END OF TIME STEP   1 IN STRESS PERIOD    1
  ---------------------------------------------------------------------------

         1     2     3     4     5     6     7     8     9    10    11
 .....................................................................
   1   50.0  62.0  69.1  73.6  76.7  78.9  80.7  82.3  84.2  88.7 100.0
   2   50.0  62.0  69.1  73.6  76.7  78.8  80.6  82.2  84.2  88.7 100.0
   3   50.0  62.0  69.2  73.6  76.6  78.7  80.4  82.0  84.1  88.7 100.0
   4   50.0  62.1  69.2  73.7  76.6  78.6  80.0  81.3  83.9  88.6 100.0
   5   50.0  62.2  69.4  73.8  76.6  78.5  79.5  79.1  83.5  88.5 100.0
   6   50.0  62.4  69.8  74.0  76.7  78.7  80.1  81.3  83.9  88.6 100.0
   7   50.0  62.7  70.8  74.3  76.9  78.9  80.5  82.0  84.1  88.7 100.0
   8   50.0  62.4  69.8  74.1  76.9  79.0  80.7  82.2  84.2  88.7 100.0
   9   50.0  62.2  69.5  73.9  76.9  79.0  80.7  82.3  84.2  88.7 100.0
  10   50.0  62.2  69.3  73.8  76.9  79.0  80.8  82.3  84.3  88.7 100.0
  11   50.0  62.1  69.3  73.8  76.8  79.0  80.8  82.3  84.3  88.7 100.0



  -------------------------------------------------------------------------------------
  VOLUMETRIC BUDGET FOR ENTIRE MODEL AT END OF TIME STEP    1 IN STRESS PERIOD      1
  -------------------------------------------------------------------------------------

     CUMULATIVE VOLUMES      L**3       RATES FOR THIS TIME STEP      L**3/T
     ------------------                 ------------------------

           IN:                                      IN:
           ---                                      ---
             STORAGE =           0.0000               STORAGE =           0.0000
       CONSTANT HEAD =           0.0000         CONSTANT HEAD =         585.5526
            RECHARGE =           0.0000              RECHARGE =         990.0000
         ET SEGMENTS =           0.0000           ET SEGMENTS =           0.0000
          DRAINS_DRT =           0.0000            DRAINS_DRT =          15.3032

            TOTAL IN =           0.0000              TOTAL IN =        1590.8558

          OUT:                                     OUT:
          ----                                     ----
             STORAGE =           0.0000               STORAGE =           0.0000
       CONSTANT HEAD =           0.0000         CONSTANT HEAD =         372.6607
            RECHARGE =           0.0000              RECHARGE =           0.0000
         ET SEGMENTS =           0.0000           ET SEGMENTS =        1179.9371
          DRAINS_DRT =           0.0000            DRAINS_DRT =          38.2580

           TOTAL OUT =           0.0000             TOTAL OUT =        1590.8559

            IN - OUT =           0.0000              IN - OUT =      -9.9467E-05

 PERCENT DISCREPANCY =           0.00     PERCENT DISCREPANCY =          -0.00


          TIME SUMMARY AT END OF TIME STEP     1 IN STRESS PERIOD      1
                    SECONDS     MINUTES      HOURS       DAYS        YEARS
                    -----------------------------------------------------------
   TIME STEP LENGTH  0.0000      0.0000      0.0000      0.0000      0.0000    
 STRESS PERIOD TIME  0.0000      0.0000      0.0000      0.0000      0.0000    
         TOTAL TIME  0.0000      0.0000      0.0000      0.0000      0.0000    
 

 Final Remark:

   The solver successfully met the user supplied convergence criteria, HCLOSE and RCLOSE, for all 1 time steps.

   Please check the "VOLUMETRIC BUDGET FOR ENTIRE MODEL" to ensure that mass rate balance errors are acceptable for all time steps.

   The cumulative mass error for the entire simulation is 0.00 %




 Simulation finished at  


 Which had an elapsed run time of: 0.0 seconds


    OneWater Simulation Now Complete


