💧🧙💦🌊  <-These symbols help text editors identify file as Unicode UTF8.
                    UTF8 is not necessary to view numerical results, but no UTF8 support can have artifacts where non-ascii symbols are used (such as the degree symbol).


MODFLOW-OWHM v2.2.0

      MMMMMMM                                       MM      MMM     MM
    MMM     MMM    MM      M   MMMMMMMM             LM     DM M     ML     MM     MMMMMMMMM  MMMMMMMM  MMMMMMMM
   MM         MM   MMM     M   MM                    MM    MM M     M     MMMM        M      M         MM     NM
   MM         MM   MM M    M   MM                    MM    M  MM   MM    MM  MM       M      M         MM      M
   MM         MM   MM  M   M   MMMMMMMM               MN  MM   M   MM   MM    MM      M      MMMMMMM   MMMMMMMMM
   MM         MM   MM   M  M   MM         MMMMMMM     MM  M    MM MM    MMMMMMMM      M      M         MM   MM
   MM         MM   MM    M M   MM                     LM MM    NM MM   MM      MM     M      M         MM    MM
    MM       NM    MM     MM   MM                      M M      M M   MN        MM    M      M         MM     MM
     MMMMMMMMN     MM      M   MMMMMMMM                7MM      7MM  MN          MM   M      MMMMMMMM  MM      MM


                        MODFLOW
            ONE-WATER HYDROLOGIC-FLOW MODEL

    U.S. Geological Survey Modular Finite-Difference
           Conjunctive Use Simulation Program

                      Version 2.2

 Release: 0

 Includes the following base versions with enhancements:

          MODFLOW-2005 Version 1.12
          MODFLOW-FMP  Version 4.1
          MODFLOW-SWR  Version 1.04
          MODFLOW-SWI  Version 2.0
          MODFLOW-LGR  Version 2.0
          MODFLOW-NWT  Version 1.2
          MODFLOW-CFP  Version 1.09.57
                  SWO  Version 1.0

------------------------------------------------------------------------------------
USGS Software Disclaimer:                                                          |
                                                                                   |
   No warranty, expressed or implied, is made by the USGS or the U.S. Government   |
   as to the functionality of the software and related material nor shall the      |
   fact of release constitute any such warranty.                                   |
                                                                                   |
   The software is provided on the condition that neither the USGS nor             |
   the U.S. Government shall be held liable for any damages resulting from the     |
   authorized or unauthorized use of the software.                                 |
                                                                                   |
   Newer versions may be present at the official code and download repository:     |
      https://code.usgs.gov/modflow/mf-owhm                                        |
                                                                                   |
------------------------------------------------------------------------------------

∙∙∙∙∙∙∙∙∙∙∙∙∙∙∙∙∙∙∙∙∙∙∙∙∙∙∙∙∙∙∙∙∙∙∙∙∙∙∙∙∙∙∙∙∙∙∙∙∙∙∙∙∙∙∙∙∙∙∙∙∙∙
    OneWater Simulation Initiated at  
∙∙∙∙∙∙∙∙∙∙∙∙∙∙∙∙∙∙∙∙∙∙∙∙∙∙∙∙∙∙∙∙∙∙∙∙∙∙∙∙∙∙∙∙∙∙∙∙∙∙∙∙∙∙∙∙∙∙∙∙∙∙


 LIST FILE: ./output/l1a2k.lst
      UNIT: 1

OPENING DATA FILES [DATA AND DATA(BINARY)]

OPENED DATA FILE ON UNIT     37 WITH FILENAME OF: ./output/l1a2k.got

OPENING PACKAGES

BAS6 PACKAGE OPENED.
BCF  PACKAGE OPENED.
EVT  PACKAGE OPENED.
RCH  PACKAGE OPENED.
SIP  PACKAGE OPENED.
OC   PACKAGE OPENED.
LAK  PACKAGE OPENED.
DIS  PACKAGE OPENED.
FHB  PACKAGE OPENED.
GAGE PACKAGE OPENED.

NOTIFICATION: A FILE UNIT NUMBER WAS FOUND FOR EITHER THE LIST FILE OR A PACAKGE.
IT WILL BE USED EVEN THOUGH UNIT NUMBERS FOR THE LIST FILE AND PACKAGES ARE NOW OPTIONAL.
[IT IS RECOMMENDED TO STILL USE A UNIT NUMBER FOR DATA and DATA(BINARY) ]


 BAS -- BASIC PACKAGE, VERSION OWHM INPUT READ FROM UNIT     7
 
MODFLOW was compiled using uniform precision (Precision => Number of meaningful digits in numbers)
Precision of REAL and DOUBLE PRECISION variables: 15

 DISCRETIZATION INPUT DATA READ FROM UNIT   14

-- READING DIS PACKAGE INPUT --

# l1a2k
# MODFLOW-2005 Example problem documented in:
#   Harbaugh, A.W., 2005, MODFLOW-2005, the U.S. Geological Survey modular ground-water model -- the Ground-Water Flow Process: U.S. Geological Survey Techniques and Methods 6-A16.
#   Harbaugh, A.W., Banta, E.R., Hill, M.C. and McDonald, M.G., 2000, MODFLOW-2000, The U.S. Geological Survey Modular Ground-Water Model - User Guide to Modularization Concepts and the Ground-Water Flow Process: U.S Geological Survey Open-File Report 2000-92, 121 p., https://doi.org/10.3133/ofr200092
#   Merritt, M.L., and Konikow, L.F., 2000, Documentation of a Computer Program to Simulate Lake-Aquifer Interaction Using the MODFLOW Ground-Water Flow Model and the MOC3D Solute-Transport Model: U.S. Geological Survey Water-Resources Investigations Report 00-4167, 146 p.
#
#      -Comments are preceded by a # sign
#
#-----------------------------------------------------------------------------------------------------------------------------------------------------


*** DIS COORDINATE SYSTEM NOT SEPECIFIED ***
DEFAULT VALUES APPLIED ARE 0° ROTATION
WITH THE ORIGIN (0,0) LOCATED AT THE MODEL'S LOWER LEFT CORNER




DIS COORDINATE SYSTEM SEPECIFIED WITH:
GRID ROTATION OF 0.0°
WITH THE ORIGIN LOCATED AT THE OUTER MOST CORNER OF MODEL CELL [17,1] WITH:
X-COORDINATE:0.0
Y-COORDINATE:0.0
    5 LAYERS        17 ROWS        17 COLUMNS
      1 STRESS PERIOD(S) IN SIMULATION
 MODEL TIME UNIT IS DAYS
 MODEL LENGTH UNIT IS UNDEFINED
  Confining bed flag for each layer:
   0   0   0   0   0



                               DELR
 READING ON UNIT   14 WITH FORMAT: (10F13.0)           
   250.00       1000.0       1000.0       1000.0       1000.0       1000.0       500.00       500.00       500.00       500.00    
   500.00       1000.0       1000.0       1000.0       1000.0       1000.0       250.00    



                               DELC
 READING ON UNIT   14 WITH FORMAT: (10F13.0)           
   250.00       1000.0       1000.0       1000.0       1000.0       1000.0       500.00       500.00       500.00       500.00    
   500.00       1000.0       1000.0       1000.0       1000.0       1000.0       250.00    

 TOP ELEVATION OF LAYER 1 =   500.000    

   MODEL LAYER BOTTOM EL. =   107.000     FOR LAYER   1

   MODEL LAYER BOTTOM EL. =   97.0000     FOR LAYER   2

   MODEL LAYER BOTTOM EL. =   87.0000     FOR LAYER   3

   MODEL LAYER BOTTOM EL. =   77.0000     FOR LAYER   4

   MODEL LAYER BOTTOM EL. =   67.0000     FOR LAYER   5


 STRESS PERIOD     LENGTH       TIME STEPS     MULTIPLIER FOR DELT    SS FLAG  (OPTIONAL TIME STEP LENGTH)
 ---------------------------------------------------------------------------------------------------
        1         5000.000        100                  1.02000         TR

 TRANSIENT SIMULATION




-- READING BAS PACKAGE INPUT --

# l1a2k
# MODFLOW-2005 Example problem documented in:
#   Harbaugh, A.W., 2005, MODFLOW-2005, the U.S. Geological Survey modular ground-water model -- the Ground-Water Flow Process: U.S. Geological Survey Techniques and Methods 6-A16.
#   Harbaugh, A.W., Banta, E.R., Hill, M.C. and McDonald, M.G., 2000, MODFLOW-2000, The U.S. Geological Survey Modular Ground-Water Model - User Guide to Modularization Concepts and the Ground-Water Flow Process: U.S Geological Survey Open-File Report 2000-92, 121 p., https://doi.org/10.3133/ofr200092
#   Merritt, M.L., and Konikow, L.F., 2000, Documentation of a Computer Program to Simulate Lake-Aquifer Interaction Using the MODFLOW Ground-Water Flow Model and the MOC3D Solute-Transport Model: U.S. Geological Survey Water-Resources Investigations Report 00-4167, 146 p.
#
# Input modified for MODFLOW-OWHM by including the BAS options:
#    NOFREE  BUDGETDB ./output/l1a2k_VolumetricBudget.txt  CUMULATIVE_HEAD_CHANGE ./output/l1a2k_CumHCHG.txt  PRINT_HEAD NPER ./output/l1a2k_Head.txt
#
#-----------------------------------------------------------------------------------------------------------------------------------------------------
#
#Hypothetical simulator of lake and surficial aquifer interaction. ------------
#Shows convergence to equilibrium in transient mode.


 THE BAS PACKAGE NOW DEFAULTS TO FREE FORMAT.
 USE OPTION "NOFREE" TO DISABLE FREE FORMAT.



########################################################################################################

                           WARNING_MESSAGE

         THE FOLLOWING COMMENTS WERE PASSED TO THE WARNING ROUTINE

THE WARNING IS BELIEVED TO HAVE ORIGINATED FROM THE FOLLOWING FILE:
"examples\mf-2005\l1a2k.ba6"

THE GUESSED LINE THAT THE WARNING OCCURED ON IS:
"NOFREE  BUDGETDB ./output/l1a2k_VolumetricBudget.txt  CUMULATIVE_HEAD_CHANGE ./output/l1a2k_CumHCHG.txt  PRINT_HEAD NPER ./output/l1a2k_Head.txt"

THE DESCRIPTION OF THE WARNING IS:

FOUND BAS PACKAGE OPTION KEYWORDS ALONG PACKAGE "OPTIONS LINE" (ie Data Set 1)

The BAS package options should be within an "OPTIONS BLOCK" rather than along the first line of input.

The BAS package will attempt to read the options line, but some advanced options may fail to load due to their complex input,
For example the option "SHIFT_STRT" uses ULOAD to read NLAY shift values, which would crash under certain ULOAD keyword combinations.

Also note that if any of the options specify a GENERIC_OUTPUT file, 
then there may be additional warnings about a BAS OPTION not being a recognized GENERIC_OUTPUT post-keyword.
These warnings can be ignored, since its a post-keyword warning pertaining to the GENERIC_OUTPUT file and 
the BAS OPTION is still processed by the BAS package.

It is recommended for new models to use "BEGIN OPTIONS" and then have one option per line and
end the options block with the word "END" in place of single line of options.

For example:

BEGIN OPTIONS

  START_DATE  4/23/1901
  SHOWPROGRESS
  NOCBC
  BUDGETDB ./output/VolumetricBudget.txt
  PAUSE

END OPTIONS

             - Note that "OPTIONS BLOCK" maybe empty or entirely not present,
               nor is it required to specify an "OPTIONS LINE"

             - DO NOT specify both an "OPTIONS BLOCK" and "OPTIONS LINE" at the same time.

########################################################################################################



 NOW READING BAS OPTIONS

 Found Option: NOFREE
                 THE FREE FORMAT OPTION IS DISABLED (INPUT USES FIXED FORMATTED READ)

 Found Option: BUDGETDB


########################################################################################################

                           WARNING_MESSAGE

         THE FOLLOWING COMMENTS WERE PASSED TO THE WARNING ROUTINE

THE WARNING IS BELIEVED TO HAVE ORIGINATED FROM THE FOLLOWING FILE:
"examples\mf-2005\l1a2k.ba6"

THE GUESSED LINE THAT THE WARNING OCCURED ON IS:
"NOFREE  BUDGETDB ./output/l1a2k_VolumetricBudget.txt  CUMULATIVE_HEAD_CHANGE ./output/l1a2k_CumHCHG.txt  PRINT_HEAD NPER ./output/l1a2k_Head.txt"

THE DESCRIPTION OF THE WARNING IS:

...CHECK_FOR_POST_KEY WARNINGS...
 THE FOLLOWING MESSAGES WERE PASSED WHILE CHECKING FOR ANY ADDITIONAL KEYWORDS ON LOADED LINE.


FAILED TO IDENTIFY THE FOLLOWING POST-KEYWORD: 

"CUMULATIVE_HEAD_CHANGE"

IT WILL BE IGNORED AND NO FURTHER KEYWORDS WILL BE CHECKED/INCLUDED TO THE RIGHT OF IT.
TO SUPRESS THIS WARNING PLEASE PLACE A "#" SYMBOL TO THE LEFT OF THE WORD TO INDICATE EVERYTHING TO THE RIGHT OF THE # IS A COMMENT

########################################################################################################




 Found Option: CUMULATIVE_HEAD_CHANGE
                 Cumulative sum of absolute head differences for the entire model.
                 This is a diagnostic feature meant for comparing MF-OWHM code versions with the same model input (software unit test).


########################################################################################################

                           WARNING_MESSAGE

         THE FOLLOWING COMMENTS WERE PASSED TO THE WARNING ROUTINE

THE WARNING IS BELIEVED TO HAVE ORIGINATED FROM THE FOLLOWING FILE:
"examples\mf-2005\l1a2k.ba6"

THE GUESSED LINE THAT THE WARNING OCCURED ON IS:
"NOFREE  BUDGETDB ./output/l1a2k_VolumetricBudget.txt  CUMULATIVE_HEAD_CHANGE ./output/l1a2k_CumHCHG.txt  PRINT_HEAD NPER ./output/l1a2k_Head.txt"

THE DESCRIPTION OF THE WARNING IS:

...CHECK_FOR_POST_KEY WARNINGS...
 THE FOLLOWING MESSAGES WERE PASSED WHILE CHECKING FOR ANY ADDITIONAL KEYWORDS ON LOADED LINE.


FAILED TO IDENTIFY THE FOLLOWING POST-KEYWORD: 

"PRINT_HEAD"

IT WILL BE IGNORED AND NO FURTHER KEYWORDS WILL BE CHECKED/INCLUDED TO THE RIGHT OF IT.
TO SUPRESS THIS WARNING PLEASE PLACE A "#" SYMBOL TO THE LEFT OF THE WORD TO INDICATE EVERYTHING TO THE RIGHT OF THE # IS A COMMENT

########################################################################################################




 Found Option: PRINT_HEAD
                 NPER ./output/l1a2k_Head.txt


 Setting up PRINT_HEAD option for 
    SP    TS   FILE
     1   100   ./output/l1a2k_Head.txt

 The total simulation limit for the number PARAMETERs defined is: 
     Max number of PARAMETERs (MXPAR)  is       2000
     Max number of INSTANCEs  (MXINST) is      50000
     Max number of CLUSTERs   (MXCLST) is    2000000




                     BOUNDARY ARRAY FOR LAYER   1
 READING ON UNIT    7 WITH FORMAT: (20I4)              

        1   2   3   4   5   6   7   8   9  10  11  12  13  14  15  16  17
 ........................................................................
   1   -1  -1  -1  -1  -1  -1  -1  -1  -1  -1  -1  -1  -1  -1  -1  -1  -1
   2   -1   1   1   1   1   1   1   1   1   1   1   1   1   1   1   1  -1
   3   -1   1   1   1   1   1   1   1   1   1   1   1   1   1   1   1  -1
   4   -1   1   1   1   1   1   1   1   1   1   1   1   1   1   1   1  -1
   5   -1   1   1   1   1   1   1   1   1   1   1   1   1   1   1   1  -1
   6   -1   1   1   1   1   1   1   1   1   1   1   1   1   1   1   1  -1
   7   -1   1   1   1   1   1   0   0   0   0   0   1   1   1   1   1  -1
   8   -1   1   1   1   1   1   0   0   0   0   0   1   1   1   1   1  -1
   9   -1   1   1   1   1   1   0   0   0   0   0   1   1   1   1   1  -1
  10   -1   1   1   1   1   1   0   0   0   0   0   1   1   1   1   1  -1
  11   -1   1   1   1   1   1   0   0   0   0   0   1   1   1   1   1  -1
  12   -1   1   1   1   1   1   1   1   1   1   1   1   1   1   1   1  -1
  13   -1   1   1   1   1   1   1   1   1   1   1   1   1   1   1   1  -1
  14   -1   1   1   1   1   1   1   1   1   1   1   1   1   1   1   1  -1
  15   -1   1   1   1   1   1   1   1   1   1   1   1   1   1   1   1  -1
  16   -1   1   1   1   1   1   1   1   1   1   1   1   1   1   1   1  -1
  17   -1  -1  -1  -1  -1  -1  -1  -1  -1  -1  -1  -1  -1  -1  -1  -1  -1



                     BOUNDARY ARRAY FOR LAYER   2
 READING ON UNIT    7 WITH FORMAT: (20I4)              

        1   2   3   4   5   6   7   8   9  10  11  12  13  14  15  16  17
 ........................................................................
   1   -1  -1  -1  -1  -1  -1  -1  -1  -1  -1  -1  -1  -1  -1  -1  -1  -1
   2   -1   1   1   1   1   1   1   1   1   1   1   1   1   1   1   1  -1
   3   -1   1   1   1   1   1   1   1   1   1   1   1   1   1   1   1  -1
   4   -1   1   1   1   1   1   1   1   1   1   1   1   1   1   1   1  -1
   5   -1   1   1   1   1   1   1   1   1   1   1   1   1   1   1   1  -1
   6   -1   1   1   1   1   1   1   1   1   1   1   1   1   1   1   1  -1
   7   -1   1   1   1   1   1   1   1   1   1   1   1   1   1   1   1  -1
   8   -1   1   1   1   1   1   1   0   0   0   1   1   1   1   1   1  -1
   9   -1   1   1   1   1   1   1   0   0   0   1   1   1   1   1   1  -1
  10   -1   1   1   1   1   1   1   0   0   0   1   1   1   1   1   1  -1
  11   -1   1   1   1   1   1   1   1   1   1   1   1   1   1   1   1  -1
  12   -1   1   1   1   1   1   1   1   1   1   1   1   1   1   1   1  -1
  13   -1   1   1   1   1   1   1   1   1   1   1   1   1   1   1   1  -1
  14   -1   1   1   1   1   1   1   1   1   1   1   1   1   1   1   1  -1
  15   -1   1   1   1   1   1   1   1   1   1   1   1   1   1   1   1  -1
  16   -1   1   1   1   1   1   1   1   1   1   1   1   1   1   1   1  -1
  17   -1  -1  -1  -1  -1  -1  -1  -1  -1  -1  -1  -1  -1  -1  -1  -1  -1



                     BOUNDARY ARRAY FOR LAYER   3
 READING ON UNIT    7 WITH FORMAT: (20I4)              

        1   2   3   4   5   6   7   8   9  10  11  12  13  14  15  16  17
 ........................................................................
   1   -1  -1  -1  -1  -1  -1  -1  -1  -1  -1  -1  -1  -1  -1  -1  -1  -1
   2   -1   1   1   1   1   1   1   1   1   1   1   1   1   1   1   1  -1
   3   -1   1   1   1   1   1   1   1   1   1   1   1   1   1   1   1  -1
   4   -1   1   1   1   1   1   1   1   1   1   1   1   1   1   1   1  -1
   5   -1   1   1   1   1   1   1   1   1   1   1   1   1   1   1   1  -1
   6   -1   1   1   1   1   1   1   1   1   1   1   1   1   1   1   1  -1
   7   -1   1   1   1   1   1   1   1   1   1   1   1   1   1   1   1  -1
   8   -1   1   1   1   1   1   1   1   1   1   1   1   1   1   1   1  -1
   9   -1   1   1   1   1   1   1   1   1   1   1   1   1   1   1   1  -1
  10   -1   1   1   1   1   1   1   1   1   1   1   1   1   1   1   1  -1
  11   -1   1   1   1   1   1   1   1   1   1   1   1   1   1   1   1  -1
  12   -1   1   1   1   1   1   1   1   1   1   1   1   1   1   1   1  -1
  13   -1   1   1   1   1   1   1   1   1   1   1   1   1   1   1   1  -1
  14   -1   1   1   1   1   1   1   1   1   1   1   1   1   1   1   1  -1
  15   -1   1   1   1   1   1   1   1   1   1   1   1   1   1   1   1  -1
  16   -1   1   1   1   1   1   1   1   1   1   1   1   1   1   1   1  -1
  17   -1  -1  -1  -1  -1  -1  -1  -1  -1  -1  -1  -1  -1  -1  -1  -1  -1



                     BOUNDARY ARRAY FOR LAYER   4
 READING ON UNIT    7 WITH FORMAT: (20I4)              

        1   2   3   4   5   6   7   8   9  10  11  12  13  14  15  16  17
 ........................................................................
   1   -1  -1  -1  -1  -1  -1  -1  -1  -1  -1  -1  -1  -1  -1  -1  -1  -1
   2   -1   1   1   1   1   1   1   1   1   1   1   1   1   1   1   1  -1
   3   -1   1   1   1   1   1   1   1   1   1   1   1   1   1   1   1  -1
   4   -1   1   1   1   1   1   1   1   1   1   1   1   1   1   1   1  -1
   5   -1   1   1   1   1   1   1   1   1   1   1   1   1   1   1   1  -1
   6   -1   1   1   1   1   1   1   1   1   1   1   1   1   1   1   1  -1
   7   -1   1   1   1   1   1   1   1   1   1   1   1   1   1   1   1  -1
   8   -1   1   1   1   1   1   1   1   1   1   1   1   1   1   1   1  -1
   9   -1   1   1   1   1   1   1   1   1   1   1   1   1   1   1   1  -1
  10   -1   1   1   1   1   1   1   1   1   1   1   1   1   1   1   1  -1
  11   -1   1   1   1   1   1   1   1   1   1   1   1   1   1   1   1  -1
  12   -1   1   1   1   1   1   1   1   1   1   1   1   1   1   1   1  -1
  13   -1   1   1   1   1   1   1   1   1   1   1   1   1   1   1   1  -1
  14   -1   1   1   1   1   1   1   1   1   1   1   1   1   1   1   1  -1
  15   -1   1   1   1   1   1   1   1   1   1   1   1   1   1   1   1  -1
  16   -1   1   1   1   1   1   1   1   1   1   1   1   1   1   1   1  -1
  17   -1  -1  -1  -1  -1  -1  -1  -1  -1  -1  -1  -1  -1  -1  -1  -1  -1



                     BOUNDARY ARRAY FOR LAYER   5
 READING ON UNIT    7 WITH FORMAT: (20I4)              

        1   2   3   4   5   6   7   8   9  10  11  12  13  14  15  16  17
 ........................................................................
   1   -1  -1  -1  -1  -1  -1  -1  -1  -1  -1  -1  -1  -1  -1  -1  -1  -1
   2   -1   1   1   1   1   1   1   1   1   1   1   1   1   1   1   1  -1
   3   -1   1   1   1   1   1   1   1   1   1   1   1   1   1   1   1  -1
   4   -1   1   1   1   1   1   1   1   1   1   1   1   1   1   1   1  -1
   5   -1   1   1   1   1   1   1   1   1   1   1   1   1   1   1   1  -1
   6   -1   1   1   1   1   1   1   1   1   1   1   1   1   1   1   1  -1
   7   -1   1   1   1   1   1   1   1   1   1   1   1   1   1   1   1  -1
   8   -1   1   1   1   1   1   1   1   1   1   1   1   1   1   1   1  -1
   9   -1   1   1   1   1   1   1   1   1   1   1   1   1   1   1   1  -1
  10   -1   1   1   1   1   1   1   1   1   1   1   1   1   1   1   1  -1
  11   -1   1   1   1   1   1   1   1   1   1   1   1   1   1   1   1  -1
  12   -1   1   1   1   1   1   1   1   1   1   1   1   1   1   1   1  -1
  13   -1   1   1   1   1   1   1   1   1   1   1   1   1   1   1   1  -1
  14   -1   1   1   1   1   1   1   1   1   1   1   1   1   1   1   1  -1
  15   -1   1   1   1   1   1   1   1   1   1   1   1   1   1   1   1  -1
  16   -1   1   1   1   1   1   1   1   1   1   1   1   1   1   1   1  -1
  17   -1  -1  -1  -1  -1  -1  -1  -1  -1  -1  -1  -1  -1  -1  -1  -1  -1

 AQUIFER HEAD WILL BE SET TO -999.0 AT ALL NO-FLOW NODES (IBOUND=0).


             INITIAL HEAD =   115.000     FOR LAYER   1

             INITIAL HEAD =   115.000     FOR LAYER   2

             INITIAL HEAD =   115.000     FOR LAYER   3

             INITIAL HEAD =   115.000     FOR LAYER   4

             INITIAL HEAD =   115.000     FOR LAYER   5

-- READING OC PACKAGE INPUT --

# l1a2k
# MODFLOW-2005 Example problem documented in:
#   Harbaugh, A.W., 2005, MODFLOW-2005, the U.S. Geological Survey modular ground-water model -- the Ground-Water Flow Process: U.S. Geological Survey Techniques and Methods 6-A16.
#   Harbaugh, A.W., Banta, E.R., Hill, M.C. and McDonald, M.G., 2000, MODFLOW-2000, The U.S. Geological Survey Modular Ground-Water Model - User Guide to Modularization Concepts and the Ground-Water Flow Process: U.S Geological Survey Open-File Report 2000-92, 121 p., https://doi.org/10.3133/ofr200092
#   Merritt, M.L., and Konikow, L.F., 2000, Documentation of a Computer Program to Simulate Lake-Aquifer Interaction Using the MODFLOW Ground-Water Flow Model and the MOC3D Solute-Transport Model: U.S. Geological Survey Water-Resources Investigations Report 00-4167, 146 p.
#
#-----------------------------------------------------------------------------------------------------------------------------------------------------


 OUTPUT CONTROL IS SPECIFIED EVERY TIME STEP
 HEAD PRINT FORMAT CODE IS -14    DRAWDOWN PRINT FORMAT CODE IS   9
 HEADS WILL BE SAVED ON UNIT   18    DRAWDOWNS WILL BE SAVED ON UNIT   19

 BCF -- BLOCK-CENTERED FLOW PACKAGE, VERSION 7, 5/2/2005
         INPUT READ FROM UNIT 10

-- READING BCF PACKAGE INPUT --

# l1a2k
# MODFLOW-2005 Example problem documented in:
#   Harbaugh, A.W., 2005, MODFLOW-2005, the U.S. Geological Survey modular ground-water model -- the Ground-Water Flow Process: U.S. Geological Survey Techniques and Methods 6-A16.
#   Harbaugh, A.W., Banta, E.R., Hill, M.C. and McDonald, M.G., 2000, MODFLOW-2000, The U.S. Geological Survey Modular Ground-Water Model - User Guide to Modularization Concepts and the Ground-Water Flow Process: U.S Geological Survey Open-File Report 2000-92, 121 p., https://doi.org/10.3133/ofr200092
#   Merritt, M.L., and Konikow, L.F., 2000, Documentation of a Computer Program to Simulate Lake-Aquifer Interaction Using the MODFLOW Ground-Water Flow Model and the MOC3D Solute-Transport Model: U.S. Geological Survey Water-Resources Investigations Report 00-4167, 146 p.
#
#      -Comments are preceded by a # sign
#
#-----------------------------------------------------------------------------------------------------------------------------------------------------

 TRANSIENT SIMULATION
 HEAD AT CELLS THAT CONVERT TO DRY=   0.0000    
 WETTING CAPABILITY IS ACTIVE
 WETTING FACTOR=   1.00000     WETTING ITERATION INTERVAL=   1
 FLAG THAT SPECIFIES THE EQUATION TO USE FOR HEAD AT WETTED CELLS=   0
      LAYER  LAYER-TYPE CODE     INTERBLOCK T
      --------------------------------------------
         1            1          0 -- HARMONIC    
         2            3          0 -- HARMONIC    
         3            3          0 -- HARMONIC    
         4            3          0 -- HARMONIC    
         5            3          0 -- HARMONIC    

 COLUMN TO ROW ANISOTROPY =   1.00000    

     PRIMARY STORAGE COEF =  0.200000     FOR LAYER   1

    HYD. COND. ALONG ROWS =   30.0000     FOR LAYER   1

 VERT HYD COND /THICKNESS =   3.00000     FOR LAYER   1



                   WETDRY PARAMETER FOR LAYER   1
 READING ON UNIT   10 WITH FORMAT: (10F13.0)           

         1     2     3     4     5     6     7     8     9    10    11    12    13    14    15    16    17
 .........................................................................................................
   1    0.0   0.0   0.0   0.0   0.0   0.0   0.0   0.0   0.0   0.0   0.0   0.0   0.0   0.0   0.0   0.0   0.0
   2    0.0  -0.2  -0.2  -0.2  -0.2  -0.2  -0.2  -0.2  -0.2  -0.2  -0.2  -0.2  -0.2  -0.2  -0.2  -0.2   0.0
   3    0.0  -0.2  -0.2  -0.2  -0.2  -0.2  -0.2  -0.2  -0.2  -0.2  -0.2  -0.2  -0.2  -0.2  -0.2  -0.2   0.0
   4    0.0  -0.2  -0.2  -0.2  -0.2  -0.2  -0.2  -0.2  -0.2  -0.2  -0.2  -0.2  -0.2  -0.2  -0.2  -0.2   0.0
   5    0.0  -0.2  -0.2  -0.2  -0.2  -0.2  -0.2  -0.2  -0.2  -0.2  -0.2  -0.2  -0.2  -0.2  -0.2  -0.2   0.0
   6    0.0  -0.2  -0.2  -0.2  -0.2  -0.2  -0.2  -0.2  -0.2  -0.2  -0.2  -0.2  -0.2  -0.2  -0.2  -0.2   0.0
   7    0.0  -0.2  -0.2  -0.2  -0.2  -0.2   0.0   0.0   0.0   0.0   0.0  -0.2  -0.2  -0.2  -0.2  -0.2   0.0
   8    0.0  -0.2  -0.2  -0.2  -0.2  -0.2   0.0   0.0   0.0   0.0   0.0  -0.2  -0.2  -0.2  -0.2  -0.2   0.0
   9    0.0  -0.2  -0.2  -0.2  -0.2  -0.2   0.0   0.0   0.0   0.0   0.0  -0.2  -0.2  -0.2  -0.2  -0.2   0.0
  10    0.0  -0.2  -0.2  -0.2  -0.2  -0.2   0.0   0.0   0.0   0.0   0.0  -0.2  -0.2  -0.2  -0.2  -0.2   0.0
  11    0.0  -0.2  -0.2  -0.2  -0.2  -0.2   0.0   0.0   0.0   0.0   0.0  -0.2  -0.2  -0.2  -0.2  -0.2   0.0
  12    0.0  -0.2  -0.2  -0.2  -0.2  -0.2  -0.2  -0.2  -0.2  -0.2  -0.2  -0.2  -0.2  -0.2  -0.2  -0.2   0.0
  13    0.0  -0.2  -0.2  -0.2  -0.2  -0.2  -0.2  -0.2  -0.2  -0.2  -0.2  -0.2  -0.2  -0.2  -0.2  -0.2   0.0
  14    0.0  -0.2  -0.2  -0.2  -0.2  -0.2  -0.2  -0.2  -0.2  -0.2  -0.2  -0.2  -0.2  -0.2  -0.2  -0.2   0.0
  15    0.0  -0.2  -0.2  -0.2  -0.2  -0.2  -0.2  -0.2  -0.2  -0.2  -0.2  -0.2  -0.2  -0.2  -0.2  -0.2   0.0
  16    0.0  -0.2  -0.2  -0.2  -0.2  -0.2  -0.2  -0.2  -0.2  -0.2  -0.2  -0.2  -0.2  -0.2  -0.2  -0.2   0.0
  17    0.0   0.0   0.0   0.0   0.0   0.0   0.0   0.0   0.0   0.0   0.0   0.0   0.0   0.0   0.0   0.0   0.0

     PRIMARY STORAGE COEF =  3.000000E-04 FOR LAYER   2

    HYD. COND. ALONG ROWS =   30.0000     FOR LAYER   2

 VERT HYD COND /THICKNESS =   3.00000     FOR LAYER   2

   SECONDARY STORAGE COEF =  0.200000     FOR LAYER   2



                   WETDRY PARAMETER FOR LAYER   2
 READING ON UNIT   10 WITH FORMAT: (10F13.0)           

         1     2     3     4     5     6     7     8     9    10    11    12    13    14    15    16    17
 .........................................................................................................
   1    0.0   0.0   0.0   0.0   0.0   0.0   0.0   0.0   0.0   0.0   0.0   0.0   0.0   0.0   0.0   0.0   0.0
   2    0.0  -0.2  -0.2  -0.2  -0.2  -0.2  -0.2  -0.2  -0.2  -0.2  -0.2  -0.2  -0.2  -0.2  -0.2  -0.2   0.0
   3    0.0  -0.2  -0.2  -0.2  -0.2  -0.2  -0.2  -0.2  -0.2  -0.2  -0.2  -0.2  -0.2  -0.2  -0.2  -0.2   0.0
   4    0.0  -0.2  -0.2  -0.2  -0.2  -0.2  -0.2  -0.2  -0.2  -0.2  -0.2  -0.2  -0.2  -0.2  -0.2  -0.2   0.0
   5    0.0  -0.2  -0.2  -0.2  -0.2  -0.2  -0.2  -0.2  -0.2  -0.2  -0.2  -0.2  -0.2  -0.2  -0.2  -0.2   0.0
   6    0.0  -0.2  -0.2  -0.2  -0.2  -0.2  -0.2  -0.2  -0.2  -0.2  -0.2  -0.2  -0.2  -0.2  -0.2  -0.2   0.0
   7    0.0  -0.2  -0.2  -0.2  -0.2  -0.2  -0.2  -0.2  -0.2  -0.2  -0.2  -0.2  -0.2  -0.2  -0.2  -0.2   0.0
   8    0.0  -0.2  -0.2  -0.2  -0.2  -0.2  -0.2   0.0   0.0   0.0  -0.2  -0.2  -0.2  -0.2  -0.2  -0.2   0.0
   9    0.0  -0.2  -0.2  -0.2  -0.2  -0.2  -0.2   0.0   0.0   0.0  -0.2  -0.2  -0.2  -0.2  -0.2  -0.2   0.0
  10    0.0  -0.2  -0.2  -0.2  -0.2  -0.2  -0.2   0.0   0.0   0.0  -0.2  -0.2  -0.2  -0.2  -0.2  -0.2   0.0
  11    0.0  -0.2  -0.2  -0.2  -0.2  -0.2  -0.2  -0.2  -0.2  -0.2  -0.2  -0.2  -0.2  -0.2  -0.2  -0.2   0.0
  12    0.0  -0.2  -0.2  -0.2  -0.2  -0.2  -0.2  -0.2  -0.2  -0.2  -0.2  -0.2  -0.2  -0.2  -0.2  -0.2   0.0
  13    0.0  -0.2  -0.2  -0.2  -0.2  -0.2  -0.2  -0.2  -0.2  -0.2  -0.2  -0.2  -0.2  -0.2  -0.2  -0.2   0.0
  14    0.0  -0.2  -0.2  -0.2  -0.2  -0.2  -0.2  -0.2  -0.2  -0.2  -0.2  -0.2  -0.2  -0.2  -0.2  -0.2   0.0
  15    0.0  -0.2  -0.2  -0.2  -0.2  -0.2  -0.2  -0.2  -0.2  -0.2  -0.2  -0.2  -0.2  -0.2  -0.2  -0.2   0.0
  16    0.0  -0.2  -0.2  -0.2  -0.2  -0.2  -0.2  -0.2  -0.2  -0.2  -0.2  -0.2  -0.2  -0.2  -0.2  -0.2   0.0
  17    0.0   0.0   0.0   0.0   0.0   0.0   0.0   0.0   0.0   0.0   0.0   0.0   0.0   0.0   0.0   0.0   0.0

     PRIMARY STORAGE COEF =  3.000000E-04 FOR LAYER   3

    HYD. COND. ALONG ROWS =   30.0000     FOR LAYER   3

 VERT HYD COND /THICKNESS =   3.00000     FOR LAYER   3

   SECONDARY STORAGE COEF =  0.200000     FOR LAYER   3



                   WETDRY PARAMETER FOR LAYER   3
 READING ON UNIT   10 WITH FORMAT: (10F13.0)           

         1     2     3     4     5     6     7     8     9    10    11    12    13    14    15    16    17
 .........................................................................................................
   1    0.0   0.0   0.0   0.0   0.0   0.0   0.0   0.0   0.0   0.0   0.0   0.0   0.0   0.0   0.0   0.0   0.0
   2    0.0  -0.2  -0.2  -0.2  -0.2  -0.2  -0.2  -0.2  -0.2  -0.2  -0.2  -0.2  -0.2  -0.2  -0.2  -0.2   0.0
   3    0.0  -0.2  -0.2  -0.2  -0.2  -0.2  -0.2  -0.2  -0.2  -0.2  -0.2  -0.2  -0.2  -0.2  -0.2  -0.2   0.0
   4    0.0  -0.2  -0.2  -0.2  -0.2  -0.2  -0.2  -0.2  -0.2  -0.2  -0.2  -0.2  -0.2  -0.2  -0.2  -0.2   0.0
   5    0.0  -0.2  -0.2  -0.2  -0.2  -0.2  -0.2  -0.2  -0.2  -0.2  -0.2  -0.2  -0.2  -0.2  -0.2  -0.2   0.0
   6    0.0  -0.2  -0.2  -0.2  -0.2  -0.2  -0.2  -0.2  -0.2  -0.2  -0.2  -0.2  -0.2  -0.2  -0.2  -0.2   0.0
   7    0.0  -0.2  -0.2  -0.2  -0.2  -0.2  -0.2  -0.2  -0.2  -0.2  -0.2  -0.2  -0.2  -0.2  -0.2  -0.2   0.0
   8    0.0  -0.2  -0.2  -0.2  -0.2  -0.2  -0.2  -0.2  -0.2  -0.2  -0.2  -0.2  -0.2  -0.2  -0.2  -0.2   0.0
   9    0.0  -0.2  -0.2  -0.2  -0.2  -0.2  -0.2  -0.2  -0.2  -0.2  -0.2  -0.2  -0.2  -0.2  -0.2  -0.2   0.0
  10    0.0  -0.2  -0.2  -0.2  -0.2  -0.2  -0.2  -0.2  -0.2  -0.2  -0.2  -0.2  -0.2  -0.2  -0.2  -0.2   0.0
  11    0.0  -0.2  -0.2  -0.2  -0.2  -0.2  -0.2  -0.2  -0.2  -0.2  -0.2  -0.2  -0.2  -0.2  -0.2  -0.2   0.0
  12    0.0  -0.2  -0.2  -0.2  -0.2  -0.2  -0.2  -0.2  -0.2  -0.2  -0.2  -0.2  -0.2  -0.2  -0.2  -0.2   0.0
  13    0.0  -0.2  -0.2  -0.2  -0.2  -0.2  -0.2  -0.2  -0.2  -0.2  -0.2  -0.2  -0.2  -0.2  -0.2  -0.2   0.0
  14    0.0  -0.2  -0.2  -0.2  -0.2  -0.2  -0.2  -0.2  -0.2  -0.2  -0.2  -0.2  -0.2  -0.2  -0.2  -0.2   0.0
  15    0.0  -0.2  -0.2  -0.2  -0.2  -0.2  -0.2  -0.2  -0.2  -0.2  -0.2  -0.2  -0.2  -0.2  -0.2  -0.2   0.0
  16    0.0  -0.2  -0.2  -0.2  -0.2  -0.2  -0.2  -0.2  -0.2  -0.2  -0.2  -0.2  -0.2  -0.2  -0.2  -0.2   0.0
  17    0.0   0.0   0.0   0.0   0.0   0.0   0.0   0.0   0.0   0.0   0.0   0.0   0.0   0.0   0.0   0.0   0.0

     PRIMARY STORAGE COEF =  3.000000E-04 FOR LAYER   4

    HYD. COND. ALONG ROWS =   30.0000     FOR LAYER   4

 VERT HYD COND /THICKNESS =   3.00000     FOR LAYER   4

   SECONDARY STORAGE COEF =  0.200000     FOR LAYER   4



                   WETDRY PARAMETER FOR LAYER   4
 READING ON UNIT   10 WITH FORMAT: (10F13.0)           

         1     2     3     4     5     6     7     8     9    10    11    12    13    14    15    16    17
 .........................................................................................................
   1    0.0   0.0   0.0   0.0   0.0   0.0   0.0   0.0   0.0   0.0   0.0   0.0   0.0   0.0   0.0   0.0   0.0
   2    0.0  -0.2  -0.2  -0.2  -0.2  -0.2  -0.2  -0.2  -0.2  -0.2  -0.2  -0.2  -0.2  -0.2  -0.2  -0.2   0.0
   3    0.0  -0.2  -0.2  -0.2  -0.2  -0.2  -0.2  -0.2  -0.2  -0.2  -0.2  -0.2  -0.2  -0.2  -0.2  -0.2   0.0
   4    0.0  -0.2  -0.2  -0.2  -0.2  -0.2  -0.2  -0.2  -0.2  -0.2  -0.2  -0.2  -0.2  -0.2  -0.2  -0.2   0.0
   5    0.0  -0.2  -0.2  -0.2  -0.2  -0.2  -0.2  -0.2  -0.2  -0.2  -0.2  -0.2  -0.2  -0.2  -0.2  -0.2   0.0
   6    0.0  -0.2  -0.2  -0.2  -0.2  -0.2  -0.2  -0.2  -0.2  -0.2  -0.2  -0.2  -0.2  -0.2  -0.2  -0.2   0.0
   7    0.0  -0.2  -0.2  -0.2  -0.2  -0.2  -0.2  -0.2  -0.2  -0.2  -0.2  -0.2  -0.2  -0.2  -0.2  -0.2   0.0
   8    0.0  -0.2  -0.2  -0.2  -0.2  -0.2  -0.2  -0.2  -0.2  -0.2  -0.2  -0.2  -0.2  -0.2  -0.2  -0.2   0.0
   9    0.0  -0.2  -0.2  -0.2  -0.2  -0.2  -0.2  -0.2  -0.2  -0.2  -0.2  -0.2  -0.2  -0.2  -0.2  -0.2   0.0
  10    0.0  -0.2  -0.2  -0.2  -0.2  -0.2  -0.2  -0.2  -0.2  -0.2  -0.2  -0.2  -0.2  -0.2  -0.2  -0.2   0.0
  11    0.0  -0.2  -0.2  -0.2  -0.2  -0.2  -0.2  -0.2  -0.2  -0.2  -0.2  -0.2  -0.2  -0.2  -0.2  -0.2   0.0
  12    0.0  -0.2  -0.2  -0.2  -0.2  -0.2  -0.2  -0.2  -0.2  -0.2  -0.2  -0.2  -0.2  -0.2  -0.2  -0.2   0.0
  13    0.0  -0.2  -0.2  -0.2  -0.2  -0.2  -0.2  -0.2  -0.2  -0.2  -0.2  -0.2  -0.2  -0.2  -0.2  -0.2   0.0
  14    0.0  -0.2  -0.2  -0.2  -0.2  -0.2  -0.2  -0.2  -0.2  -0.2  -0.2  -0.2  -0.2  -0.2  -0.2  -0.2   0.0
  15    0.0  -0.2  -0.2  -0.2  -0.2  -0.2  -0.2  -0.2  -0.2  -0.2  -0.2  -0.2  -0.2  -0.2  -0.2  -0.2   0.0
  16    0.0  -0.2  -0.2  -0.2  -0.2  -0.2  -0.2  -0.2  -0.2  -0.2  -0.2  -0.2  -0.2  -0.2  -0.2  -0.2   0.0
  17    0.0   0.0   0.0   0.0   0.0   0.0   0.0   0.0   0.0   0.0   0.0   0.0   0.0   0.0   0.0   0.0   0.0

     PRIMARY STORAGE COEF =  3.000000E-04 FOR LAYER   5

    HYD. COND. ALONG ROWS =   30.0000     FOR LAYER   5

   SECONDARY STORAGE COEF =  0.200000     FOR LAYER   5



                   WETDRY PARAMETER FOR LAYER   5
 READING ON UNIT   10 WITH FORMAT: (10F13.0)           

         1     2     3     4     5     6     7     8     9    10    11    12    13    14    15    16    17
 .........................................................................................................
   1    0.0   0.0   0.0   0.0   0.0   0.0   0.0   0.0   0.0   0.0   0.0   0.0   0.0   0.0   0.0   0.0   0.0
   2    0.0  -0.2  -0.2  -0.2  -0.2  -0.2  -0.2  -0.2  -0.2  -0.2  -0.2  -0.2  -0.2  -0.2  -0.2  -0.2   0.0
   3    0.0  -0.2  -0.2  -0.2  -0.2  -0.2  -0.2  -0.2  -0.2  -0.2  -0.2  -0.2  -0.2  -0.2  -0.2  -0.2   0.0
   4    0.0  -0.2  -0.2  -0.2  -0.2  -0.2  -0.2  -0.2  -0.2  -0.2  -0.2  -0.2  -0.2  -0.2  -0.2  -0.2   0.0
   5    0.0  -0.2  -0.2  -0.2  -0.2  -0.2  -0.2  -0.2  -0.2  -0.2  -0.2  -0.2  -0.2  -0.2  -0.2  -0.2   0.0
   6    0.0  -0.2  -0.2  -0.2  -0.2  -0.2  -0.2  -0.2  -0.2  -0.2  -0.2  -0.2  -0.2  -0.2  -0.2  -0.2   0.0
   7    0.0  -0.2  -0.2  -0.2  -0.2  -0.2  -0.2  -0.2  -0.2  -0.2  -0.2  -0.2  -0.2  -0.2  -0.2  -0.2   0.0
   8    0.0  -0.2  -0.2  -0.2  -0.2  -0.2  -0.2  -0.2  -0.2  -0.2  -0.2  -0.2  -0.2  -0.2  -0.2  -0.2   0.0
   9    0.0  -0.2  -0.2  -0.2  -0.2  -0.2  -0.2  -0.2  -0.2  -0.2  -0.2  -0.2  -0.2  -0.2  -0.2  -0.2   0.0
  10    0.0  -0.2  -0.2  -0.2  -0.2  -0.2  -0.2  -0.2  -0.2  -0.2  -0.2  -0.2  -0.2  -0.2  -0.2  -0.2   0.0
  11    0.0  -0.2  -0.2  -0.2  -0.2  -0.2  -0.2  -0.2  -0.2  -0.2  -0.2  -0.2  -0.2  -0.2  -0.2  -0.2   0.0
  12    0.0  -0.2  -0.2  -0.2  -0.2  -0.2  -0.2  -0.2  -0.2  -0.2  -0.2  -0.2  -0.2  -0.2  -0.2  -0.2   0.0
  13    0.0  -0.2  -0.2  -0.2  -0.2  -0.2  -0.2  -0.2  -0.2  -0.2  -0.2  -0.2  -0.2  -0.2  -0.2  -0.2   0.0
  14    0.0  -0.2  -0.2  -0.2  -0.2  -0.2  -0.2  -0.2  -0.2  -0.2  -0.2  -0.2  -0.2  -0.2  -0.2  -0.2   0.0
  15    0.0  -0.2  -0.2  -0.2  -0.2  -0.2  -0.2  -0.2  -0.2  -0.2  -0.2  -0.2  -0.2  -0.2  -0.2  -0.2   0.0
  16    0.0  -0.2  -0.2  -0.2  -0.2  -0.2  -0.2  -0.2  -0.2  -0.2  -0.2  -0.2  -0.2  -0.2  -0.2  -0.2   0.0
  17    0.0   0.0   0.0   0.0   0.0   0.0   0.0   0.0   0.0   0.0   0.0   0.0   0.0   0.0   0.0   0.0   0.0

 EVT -- EVAPOTRANSPIRATION PACKAGE, VERSION OWHM,
         INPUT READ FROM UNIT   11

-- READING EVT PACKAGE INPUT --

# l1a2k
# MODFLOW-2005 Example problem documented in:
#   Harbaugh, A.W., 2005, MODFLOW-2005, the U.S. Geological Survey modular ground-water model -- the Ground-Water Flow Process: U.S. Geological Survey Techniques and Methods 6-A16.
#   Harbaugh, A.W., Banta, E.R., Hill, M.C. and McDonald, M.G., 2000, MODFLOW-2000, The U.S. Geological Survey Modular Ground-Water Model - User Guide to Modularization Concepts and the Ground-Water Flow Process: U.S Geological Survey Open-File Report 2000-92, 121 p., https://doi.org/10.3133/ofr200092
#   Merritt, M.L., and Konikow, L.F., 2000, Documentation of a Computer Program to Simulate Lake-Aquifer Interaction Using the MODFLOW Ground-Water Flow Model and the MOC3D Solute-Transport Model: U.S. Geological Survey Water-Resources Investigations Report 00-4167, 146 p.
#
#-----------------------------------------------------------------------------------------------------------------------------------------------------

 No named parameters
 OPTION 3 -- EVAPOTRANSPIRATION FROM HIGHEST ACTIVE NODE IN EACH VERTICAL COLUMN


     0 Evapotranspiration parameters

 RCH -- RECHARGE PACKAGE, VERSION OWHM INPUT READ FROM UNIT   12

-- READING RCH PACKAGE INPUT --

# l1a2k
# MODFLOW-2005 Example problem documented in:
#   Harbaugh, A.W., 2005, MODFLOW-2005, the U.S. Geological Survey modular ground-water model -- the Ground-Water Flow Process: U.S. Geological Survey Techniques and Methods 6-A16.
#   Harbaugh, A.W., Banta, E.R., Hill, M.C. and McDonald, M.G., 2000, MODFLOW-2000, The U.S. Geological Survey Modular Ground-Water Model - User Guide to Modularization Concepts and the Ground-Water Flow Process: U.S Geological Survey Open-File Report 2000
#   Merritt, M.L., and Konikow, L.F., 2000, Documentation of a Computer Program to Simulate Lake-Aquifer Interaction Using the MODFLOW Ground-Water Flow Model and the MOC3D Solute-Transport Model: U.S. Geological Survey Water-Resources Investigations Repor
#
#-----------------------------------------------------------------------------------------------------------------------------------------------------

 No named parameters
 OPTION 3 -- RECHARGE TO HIGHEST ACTIVE NODE IN EACH VERTICAL COLUMN


     0 Recharge parameters

 FHB1 -- SPECIFIED FLOW PACKAGE, VERSION OWHM INPUT READ FROM 21
  SPECIFIED FLOW AND HEAD VALUES WILL REMAIN CONSTANT FOR ENTIRE SIMULATION.
 FLOW WILL BE SPECIFIED AT A TOTAL OF    0 CELLS.
 HEAD WILL BE SPECIFIED AT A TOTAL OF  320 CELLS.
 FHB STEADY-STATE OPTION FLAG WILL BE IGNORED,
 AT LEAST ONE STRESS PERIOD IS TRANSIENT.
  0 AUXILIARY VARIABLES FOR SPECIFIED-FLOW CELLS WILL
  BE DEFINED BY FHB FOR USE BY OTHER PACKAGES.
  0 AUXILIARY VARIABLES FOR SPECIFIED-HEAD CELLS WILL
  BE DEFINED BY FHB FOR USE BY OTHER PACKAGES.
 TIMES FOR SPECIFIED-FLOW AND HEAD VALUES WILL BE READ ON UNIT  21 AND
 MULTIPLIED BY   1.000    .
     1 TIMES FOR SPECIFYING FLOWS AND HEADS:
                       1
                 ------------
                    0.000    

 CELL INDICES AND SPECIFIED-HEAD VALUES WILL BE READ ON UNIT  21. HEAD VALUES
 WILL BE MULTIPLIED BY   1.000    .
 LAYER  ROW  COL IAUX             HEAD VALUES
 -------------------------------
    1    1    1   64   160.0    
    1    2    1   64   160.0    
    1    3    1   64   160.0    
    1    4    1   64   160.0    
    1    5    1   64   160.0    
    1    6    1   64   160.0    
    1    7    1   64   160.0    
    1    8    1   64   160.0    
    1    9    1   64   160.0    
    1   10    1   64   160.0    
    1   11    1   64   160.0    
    1   12    1   64   160.0    
    1   13    1   64   160.0    
    1   14    1   64   160.0    
    1   15    1   64   160.0    
    1   16    1   64   160.0    
    1   17    1   64   160.0    
    1    1   17   64   140.0    
    1    2   17   64   140.0    
    1    3   17   64   140.0    
    1    4   17   64   140.0    
    1    5   17   64   140.0    
    1    6   17   64   140.0    
    1    7   17   64   140.0    
    1    8   17   64   140.0    
    1    9   17   64   140.0    
    1   10   17   64   140.0    
    1   11   17   64   140.0    
    1   12   17   64   140.0    
    1   13   17   64   140.0    
    1   14   17   64   140.0    
    1   15   17   64   140.0    
    1   16   17   64   140.0    
    1   17   17   64   140.0    
    2    1    1   64   160.0    
    2    2    1   64   160.0    
    2    3    1   64   160.0    
    2    4    1   64   160.0    
    2    5    1   64   160.0    
    2    6    1   64   160.0    
    2    7    1   64   160.0    
    2    8    1   64   160.0    
    2    9    1   64   160.0    
    2   10    1   64   160.0    
    2   11    1   64   160.0    
    2   12    1   64   160.0    
    2   13    1   64   160.0    
    2   14    1   64   160.0    
    2   15    1   64   160.0    
    2   16    1   64   160.0    
    2   17    1   64   160.0    
    2    1   17   64   140.0    
    2    2   17   64   140.0    
    2    3   17   64   140.0    
    2    4   17   64   140.0    
    2    5   17   64   140.0    
    2    6   17   64   140.0    
    2    7   17   64   140.0    
    2    8   17   64   140.0    
    2    9   17   64   140.0    
    2   10   17   64   140.0    
    2   11   17   64   140.0    
    2   12   17   64   140.0    
    2   13   17   64   140.0    
    2   14   17   64   140.0    
    2   15   17   64   140.0    
    2   16   17   64   140.0    
    2   17   17   64   140.0    
    3    1    1   64   160.0    
    3    2    1   64   160.0    
    3    3    1   64   160.0    
    3    4    1   64   160.0    
    3    5    1   64   160.0    
    3    6    1   64   160.0    
    3    7    1   64   160.0    
    3    8    1   64   160.0    
    3    9    1   64   160.0    
    3   10    1   64   160.0    
    3   11    1   64   160.0    
    3   12    1   64   160.0    
    3   13    1   64   160.0    
    3   14    1   64   160.0    
    3   15    1   64   160.0    
    3   16    1   64   160.0    
    3   17    1   64   160.0    
    3    1   17   64   140.0    
    3    2   17   64   140.0    
    3    3   17   64   140.0    
    3    4   17   64   140.0    
    3    5   17   64   140.0    
    3    6   17   64   140.0    
    3    7   17   64   140.0    
    3    8   17   64   140.0    
    3    9   17   64   140.0    
    3   10   17   64   140.0    
    3   11   17   64   140.0    
    3   12   17   64   140.0    
    3   13   17   64   140.0    
    3   14   17   64   140.0    
    3   15   17   64   140.0    
    3   16   17   64   140.0    
    3   17   17   64   140.0    
    4    1    1   64   160.0    
    4    2    1   64   160.0    
    4    3    1   64   160.0    
    4    4    1   64   160.0    
    4    5    1   64   160.0    
    4    6    1   64   160.0    
    4    7    1   64   160.0    
    4    8    1   64   160.0    
    4    9    1   64   160.0    
    4   10    1   64   160.0    
    4   11    1   64   160.0    
    4   12    1   64   160.0    
    4   13    1   64   160.0    
    4   14    1   64   160.0    
    4   15    1   64   160.0    
    4   16    1   64   160.0    
    4   17    1   64   160.0    
    4    1   17   64   140.0    
    4    2   17   64   140.0    
    4    3   17   64   140.0    
    4    4   17   64   140.0    
    4    5   17   64   140.0    
    4    6   17   64   140.0    
    4    7   17   64   140.0    
    4    8   17   64   140.0    
    4    9   17   64   140.0    
    4   10   17   64   140.0    
    4   11   17   64   140.0    
    4   12   17   64   140.0    
    4   13   17   64   140.0    
    4   14   17   64   140.0    
    4   15   17   64   140.0    
    4   16   17   64   140.0    
    4   17   17   64   140.0    
    5    1    1   64   160.0    
    5    2    1   64   160.0    
    5    3    1   64   160.0    
    5    4    1   64   160.0    
    5    5    1   64   160.0    
    5    6    1   64   160.0    
    5    7    1   64   160.0    
    5    8    1   64   160.0    
    5    9    1   64   160.0    
    5   10    1   64   160.0    
    5   11    1   64   160.0    
    5   12    1   64   160.0    
    5   13    1   64   160.0    
    5   14    1   64   160.0    
    5   15    1   64   160.0    
    5   16    1   64   160.0    
    5   17    1   64   160.0    
    5    1   17   64   140.0    
    5    2   17   64   140.0    
    5    3   17   64   140.0    
    5    4   17   64   140.0    
    5    5   17   64   140.0    
    5    6   17   64   140.0    
    5    7   17   64   140.0    
    5    8   17   64   140.0    
    5    9   17   64   140.0    
    5   10   17   64   140.0    
    5   11   17   64   140.0    
    5   12   17   64   140.0    
    5   13   17   64   140.0    
    5   14   17   64   140.0    
    5   15   17   64   140.0    
    5   16   17   64   140.0    
    5   17   17   64   140.0    
    1    1    2   64   158.8    
    1    1    3   64   157.3    
    1    1    4   64   155.8    
    1    1    5   64   154.2    
    1    1    6   64   152.7    
    1    1    7   64   151.5    
    1    1    8   64   150.8    
    1    1    9   64   150.0    
    1    1   10   64   149.2    
    1    1   11   64   148.5    
    1    1   12   64   147.3    
    1    1   13   64   145.8    
    1    1   14   64   144.2    
    1    1   15   64   142.7    
    1    1   16   64   141.2    
    1   17    2   64   158.8    
    1   17    3   64   157.3    
    1   17    4   64   155.8    
    1   17    5   64   154.2    
    1   17    6   64   152.7    
    1   17    7   64   151.5    
    1   17    8   64   150.8    
    1   17    9   64   150.0    
    1   17   10   64   149.2    
    1   17   11   64   148.5    
    1   17   12   64   147.3    
    1   17   13   64   145.8    
    1   17   14   64   144.2    
    1   17   15   64   142.7    
    1   17   16   64   141.2    
    2    1    2   64   158.8    
    2    1    3   64   157.3    
    2    1    4   64   155.8    
    2    1    5   64   154.2    
    2    1    6   64   152.7    
    2    1    7   64   151.5    
    2    1    8   64   150.8    
    2    1    9   64   150.0    
    2    1   10   64   149.2    
    2    1   11   64   148.5    
    2    1   12   64   147.3    
    2    1   13   64   145.8    
    2    1   14   64   144.2    
    2    1   15   64   142.7    
    2    1   16   64   141.2    
    2   17    2   64   158.8    
    2   17    3   64   157.3    
    2   17    4   64   155.8    
    2   17    5   64   154.2    
    2   17    6   64   152.7    
    2   17    7   64   151.5    
    2   17    8   64   150.8    
    2   17    9   64   150.0    
    2   17   10   64   149.2    
    2   17   11   64   148.5    
    2   17   12   64   147.3    
    2   17   13   64   145.8    
    2   17   14   64   144.2    
    2   17   15   64   142.7    
    2   17   16   64   141.2    
    3    1    2   64   158.8    
    3    1    3   64   157.3    
    3    1    4   64   155.8    
    3    1    5   64   154.2    
    3    1    6   64   152.7    
    3    1    7   64   151.5    
    3    1    8   64   150.8    
    3    1    9   64   150.0    
    3    1   10   64   149.2    
    3    1   11   64   148.5    
    3    1   12   64   147.3    
    3    1   13   64   145.8    
    3    1   14   64   144.2    
    3    1   15   64   142.7    
    3    1   16   64   141.2    
    3   17    2   64   158.8    
    3   17    3   64   157.3    
    3   17    4   64   155.8    
    3   17    5   64   154.2    
    3   17    6   64   152.7    
    3   17    7   64   151.5    
    3   17    8   64   150.8    
    3   17    9   64   150.0    
    3   17   10   64   149.2    
    3   17   11   64   148.5    
    3   17   12   64   147.3    
    3   17   13   64   145.8    
    3   17   14   64   144.2    
    3   17   15   64   142.7    
    3   17   16   64   141.2    
    4    1    2   64   158.8    
    4    1    3   64   157.3    
    4    1    4   64   155.8    
    4    1    5   64   154.2    
    4    1    6   64   152.7    
    4    1    7   64   151.5    
    4    1    8   64   150.8    
    4    1    9   64   150.0    
    4    1   10   64   149.2    
    4    1   11   64   148.5    
    4    1   12   64   147.3    
    4    1   13   64   145.8    
    4    1   14   64   144.2    
    4    1   15   64   142.7    
    4    1   16   64   141.2    
    4   17    2   64   158.8    
    4   17    3   64   157.3    
    4   17    4   64   155.8    
    4   17    5   64   154.2    
    4   17    6   64   152.7    
    4   17    7   64   151.5    
    4   17    8   64   150.8    
    4   17    9   64   150.0    
    4   17   10   64   149.2    
    4   17   11   64   148.5    
    4   17   12   64   147.3    
    4   17   13   64   145.8    
    4   17   14   64   144.2    
    4   17   15   64   142.7    
    4   17   16   64   141.2    
    5    1    2   64   158.8    
    5    1    3   64   157.3    
    5    1    4   64   155.8    
    5    1    5   64   154.2    
    5    1    6   64   152.7    
    5    1    7   64   151.5    
    5    1    8   64   150.8    
    5    1    9   64   150.0    
    5    1   10   64   149.2    
    5    1   11   64   148.5    
    5    1   12   64   147.3    
    5    1   13   64   145.8    
    5    1   14   64   144.2    
    5    1   15   64   142.7    
    5    1   16   64   141.2    
    5   17    2   64   158.8    
    5   17    3   64   157.3    
    5   17    4   64   155.8    
    5   17    5   64   154.2    
    5   17    6   64   152.7    
    5   17    7   64   151.5    
    5   17    8   64   150.8    
    5   17    9   64   150.0    
    5   17   10   64   149.2    
    5   17   11   64   148.5    
    5   17   12   64   147.3    
    5   17   13   64   145.8    
    5   17   14   64   144.2    
    5   17   15   64   142.7    
    5   17   16   64   141.2    

 LAK7 -- LAKE PACKAGE, VERSION OWHM INPUT READ FROM UNIT 16

-- READING LAK PACKAGE INPUT --

# l1a2k
# MODFLOW-2005 Example problem documented in:
#   Harbaugh, A.W., 2005, MODFLOW-2005, the U.S. Geological Survey modular ground-water model -- the Ground-Water Flow Process: U.S. Geological Survey Techniques and Methods 6-A16.
#   Harbaugh, A.W., Banta, E.R., Hill, M.C. and McDonald, M.G., 2000, MODFLOW-2000, The U.S. Geological Survey Modular Ground-Water Model - User Guide to Modularization Concepts and the Ground-Water Flow Process: U.S Geological Survey Open-File Report 2000-92, 121 p., https://doi.org/10.3133/ofr200092
#  Merritt, M.L., and Konikow, L.F., 2000, Documentation of a Computer Program to Simulate Lake-Aquifer Interaction Using the MODFLOW Ground-Water Flow Model and the MOC3D Solute-Transport Model: U.S. Geological Survey Water-Resources Investigations Report 00-4167, 146 p.
#
#-----------------------------------------------------------------------------------------------------------------------------------------------------

 No named parameters
 Model grid will be used to develop 
 volume and area relationship. 
 SPACE ALLOCATION FOR    722 GRID CELL FACES ADJACENT TOLAKES
 MAXIMUM NUMBER OF LAKES IS  1 FOR THIS SIMULATION
 CELL-BY-CELL SEEPAGES WILL NOT BE PRINTED OR SAVED

 THETA =  0.000
 THETA IS THE TIME WEIGHTING FACTOR FOR COMPUTING LAKE STAGE DURING TRANSIENT MODFLOW TIME STEPS AND ITS DEFINITION HAS BEEN MODIFIED.
 A THETA OF LESS THAN 0.5 IS AUTOMATICALLY SET TO 0 AND LAKE STAGE IS EQUAL TO THE STAGE AT THE END OF THE PREVIOUS TIME STEP. 
 TRANSIENT SIMULATIONS OF LAKE STAGE WITH THE CURRENT TIME STEP REQUIRES A THETA BETWEEN 0.5 AND 1.0. 
 VALUES GREATER THAN 1.0 ARE AUTOMATICALLY RESET TO  1.0 AND VALUES LESS THAN 0.5 ARE RESET TO 0.0.
 A THETA OF 0.5 REPRESENTS THE AVERAGE LAKE STAGE DURING A TIME STEP.
 A THETA OF 1.0 REPRESENTS THE LAKE STAGE AT THE END OF THE TIME STEP.




 LAKE PACKAGE HAS BEEN MODIFIED TO ITERATIVELY SOLVE FOR LAKE STAGE DURING TRANSIENT STRESS PERIODS:
 MAXIMUM NUMBER OF ITERATIONS (NSSITR) =   100
 CLOSURE CRITERIA FOR LAKE STAGE (SSCNCR) =  1.000000E-05
 DEFAULT VALUES FOR TRANSIENT ONLY SIMULATIONS ARE: NSSITR = 100 AND SSCNCR = 0.0001
 VALUES OTHER THAN DEFAULT CAN BE READ BY SPECIFYING A THETA LESS THAN ZERO THEN ADDING NSSITR AND SSCNCR PER ORIGINAL INSTRUCTIONS.
 NEGATIVE THETA MUST BE LESS THAN ZERO BUT NOT MORE THAN ONE. THETA IS CONVERTED TO A POSITIVE VALUE.
 MINIMUM AND MAXIMUM LAKE STAGES FOR TRANSIENT SIMULATIONS ARE SET TO BOTTOM AND TOP ELEVATIONS USED TO COMPUTE LAKE VOLUME, RESPECTIVELY.



-- READING GAG PACKAGE INPUT --

# l1a2k
# MODFLOW-2005 Example problem documented in:
#   Harbaugh, A.W., 2005, MODFLOW-2005, the U.S. Geological Survey modular ground-water model -- the Ground-Water Flow Process: U.S. Geological Survey Techniques and Methods 6-A16.
#   Harbaugh, A.W., Banta, E.R., Hill, M.C. and McDonald, M.G., 2000, MODFLOW-2000, The U.S. Geological Survey Modular Ground-Water Model - User Guide to Modularization Concepts and the Ground-Water Flow Process: U.S Geological Survey Open-File Report 2000
#   Merritt, M.L., and Konikow, L.F., 2000, Documentation of a Computer Program to Simulate Lake-Aquifer Interaction Using the MODFLOW Ground-Water Flow Model and the MOC3D Solute-Transport Model: U.S. Geological Survey Water-Resources Investigations Repor
#
#-----------------------------------------------------------------------------------------------------------------------------------------------------




   1 GAGING STATION WAS SPECIFIED.
     (Lakes are identified by a negative value of the Lake Number)
     RECORDS WILL BE WRITTEN TO SEPARATE OUTPUT FILE REPRESENTED BY FOLLOWING UNIT NUMBER:
 Lake Gages:
  GAGE #    LAKE     UNIT   OUTTYPE
       1      -1      37





 SIP -- STRONGLY-IMPLICIT PROCEDURE SOLUTION PACKAGE
                    VERSION OWHM INPUT READ FROM UNIT   13

-- READING SIP PACKAGE INPUT --

# l1a2k
# MODFLOW-2005 Example problem documented in:
#   Harbaugh, A.W., 2005, MODFLOW-2005, the U.S. Geological Survey modular ground-water model -- the Ground-Water Flow Process: U.S. Geological Survey Techniques and Methods 6-A16.
#   Harbaugh, A.W., Banta, E.R., Hill, M.C. and McDonald, M.G., 2000, MODFLOW-2000, The U.S. Geological Survey Modular Ground-Water Model - User Guide to Modularization Concepts and the Ground-Water Flow Process: U.S Geological Survey Open-File Report 2000-92, 121 p., https://doi.org/10.3133/ofr200092
#   Merritt, M.L., and Konikow, L.F., 2000, Documentation of a Computer Program to Simulate Lake-Aquifer Interaction Using the MODFLOW Ground-Water Flow Model and the MOC3D Solute-Transport Model: U.S. Geological Survey Water-Resources Investigations Report 00-4167, 146 p.
#
#-----------------------------------------------------------------------------------------------------------------------------------------------------

 MAXIMUM OF 500 ITERATIONS ALLOWED FOR CLOSURE
  5 ITERATION PARAMETERS

          SOLUTION BY THE STRONGLY IMPLICIT PROCEDURE
          -------------------------------------------
 MAXIMUM ITERATIONS ALLOWED FOR CLOSURE =      500
                 ACCELERATION PARAMETER =     1.0000    
      HEAD CHANGE CRITERION FOR CLOSURE =    0.10000E-03
      SIP HEAD CHANGE PRINTOUT INTERVAL =        1

     CALCULATE ITERATION PARAMETERS FROM MODEL CALCULATED WSEED


########################################################################################################

                           WARNING_MESSAGE

         THE FOLLOWING COMMENTS WERE PASSED TO THE WARNING ROUTINE

THE DESCRIPTION OF THE WARNING IS:

DIS PACKAGE: THE GROUND SURFACE ELEVATION WAS NOT SPECIFIED WITH THE KEYWORD "SURFACE_ELEVATION"

BEFORE LOADING THE "TOP" ARRAY FOR LAYER 1
NOR WAS IT DEFINED WITH ANOTHER PACKAGE   (e.g. FMPs GLOBAL DIMENSION KEYWORD "SURFACE_ELEVATION")

OneWater WILL SET THE GROUND SURFACE ELEVATION (GSE)
TO THE TOP ELEVATION OF THE UPPER MOST ACTIVE CELL OR THE DIS TOP OF LAY1.

NOTE THAT SFR DOES USE GSE FOR ALL DIVERSION SEGMENTS
   WHEN "IRDFLG" IS SET TO 2 or -2.

########################################################################################################



1
                            STRESS PERIOD NO.      1, LENGTH =   5000.000    
                            -----------------------------------------------

                              NUMBER OF TIME STEPS =   100

                               MULTIPLIER FOR DELT =     1.020

                            INITIAL TIME STEP SIZE =   16.01372    

PARAMETERS HAVE BEEN USED IN PACKAGES

THE CURRENT STORAGE FOR PARAMETERS IS: 
No. PARAMETER=         0 WITH MAX STORAGE (MXPAR)  OF      2000
No. CLUSTERS =         0 WITH MAX STORAGE (MXCLST) OF   2000000
No. INSTANCES=         0 WITH MAX STORAGE (MXINST) OF     50000

YOU CAN INCREASE/DECREASE STORAGE WITH BAS OPTION:
MAXPARAM  MXPAR  MXCLST MXINST

FYI, YOU CAN REDUCE RAM USUAGE WITH BAS OPTION
(NOTE THE THREE NUMBERS ARE A MINUMUM SIZE):
   MAXPARAM          1         1         1




                         ET SURFACE
 READING ON UNIT   11 WITH FORMAT: (19F6.1)            

         1     2     3     4     5     6     7     8     9    10    11    12    13    14    15    16    17
 .........................................................................................................
   1  160.0 159.0 157.4 155.9 154.3 152.7 151.6 150.8 150.0 149.2 148.4 147.3 145.7 144.1 142.6 141.0 140.0
   2  160.0 159.0 157.4 155.9 154.3 152.7 151.6 150.8 150.0 149.2 148.4 147.3 145.7 144.1 142.6 141.0 140.0
   3  160.0 159.0 157.4 155.9 154.3 152.7 151.6 150.8 150.0 149.2 148.4 147.3 145.7 144.1 142.6 141.0 140.0
   4  160.0 159.0 157.4 155.9 154.3 152.7 151.6 150.8 150.0 149.2 148.4 147.3 145.7 144.1 142.6 141.0 140.0
   5  160.0 159.0 157.4 155.9 154.3 152.7 151.6 150.8 150.0 149.2 148.4 147.3 145.7 144.1 142.6 141.0 140.0
   6  160.0 159.0 157.4 155.9 154.3 152.7 151.6 150.8 150.0 149.2 148.4 147.3 145.7 144.1 142.6 141.0 140.0
   7  160.0 159.0 157.4 155.9 154.3 152.7 105.0 105.0 105.0 105.0 105.0 147.3 145.7 144.1 142.6 141.0 140.0
   8  160.0 159.0 157.4 155.9 154.3 152.7 105.0  95.0  95.0  95.0 105.0 147.3 145.7 144.1 142.6 141.0 140.0
   9  160.0 159.0 157.4 155.9 154.3 152.7 105.0  95.0  95.0  95.0 105.0 147.3 145.7 144.1 142.6 141.0 140.0
  10  160.0 159.0 157.4 155.9 154.3 152.7 105.0  95.0  95.0  95.0 105.0 147.3 145.7 144.1 142.6 141.0 140.0
  11  160.0 159.0 157.4 155.9 154.3 152.7 105.0 105.0 105.0 105.0 105.0 147.3 145.7 144.1 142.6 141.0 140.0
  12  160.0 159.0 157.4 155.9 154.3 152.7 151.6 150.8 150.0 149.2 148.4 147.3 145.7 144.1 142.6 141.0 140.0
  13  160.0 159.0 157.4 155.9 154.3 152.7 151.6 150.8 150.0 149.2 148.4 147.3 145.7 144.1 142.6 141.0 140.0
  14  160.0 159.0 157.4 155.9 154.3 152.7 151.6 150.8 150.0 149.2 148.4 147.3 145.7 144.1 142.6 141.0 140.0
  15  160.0 159.0 157.4 155.9 154.3 152.7 151.6 150.8 150.0 149.2 148.4 147.3 145.7 144.1 142.6 141.0 140.0
  16  160.0 159.0 157.4 155.9 154.3 152.7 151.6 150.8 150.0 149.2 148.4 147.3 145.7 144.1 142.6 141.0 140.0
  17  160.0 159.0 157.4 155.9 154.3 152.7 151.6 150.8 150.0 149.2 148.4 147.3 145.7 144.1 142.6 141.0 140.0

  EVAPOTRANSPIRATION RATE =  1.410000E-02

         EXTINCTION DEPTH =   15.0000    

                 RECHARGE =  1.160000E-02


 LAKE PACKAGE ACTIVE:  CALCULATED LAKE STAGE FOR EACH TIME STEP WILL BE STORED IN HNEW ARRAY.

 INITIAL LAKE STAGE:  LAKE    STAGE

                        1   110.000




 If any subsequent steady-state stress periods, min. and max. stages for each lake will be read in Record 9a.





                      LAKE ID ARRAY FOR LAYER   1
 READING ON UNIT   16 WITH FORMAT: (24I3)              

        1   2   3   4   5   6   7   8   9  10  11  12  13  14  15  16  17
 ........................................................................
   1    0   0   0   0   0   0   0   0   0   0   0   0   0   0   0   0   0
   2    0   0   0   0   0   0   0   0   0   0   0   0   0   0   0   0   0
   3    0   0   0   0   0   0   0   0   0   0   0   0   0   0   0   0   0
   4    0   0   0   0   0   0   0   0   0   0   0   0   0   0   0   0   0
   5    0   0   0   0   0   0   0   0   0   0   0   0   0   0   0   0   0
   6    0   0   0   0   0   0   0   0   0   0   0   0   0   0   0   0   0
   7    0   0   0   0   0   0   1   1   1   1   1   0   0   0   0   0   0
   8    0   0   0   0   0   0   1   1   1   1   1   0   0   0   0   0   0
   9    0   0   0   0   0   0   1   1   1   1   1   0   0   0   0   0   0
  10    0   0   0   0   0   0   1   1   1   1   1   0   0   0   0   0   0
  11    0   0   0   0   0   0   1   1   1   1   1   0   0   0   0   0   0
  12    0   0   0   0   0   0   0   0   0   0   0   0   0   0   0   0   0
  13    0   0   0   0   0   0   0   0   0   0   0   0   0   0   0   0   0
  14    0   0   0   0   0   0   0   0   0   0   0   0   0   0   0   0   0
  15    0   0   0   0   0   0   0   0   0   0   0   0   0   0   0   0   0
  16    0   0   0   0   0   0   0   0   0   0   0   0   0   0   0   0   0
  17    0   0   0   0   0   0   0   0   0   0   0   0   0   0   0   0   0



                      LAKE ID ARRAY FOR LAYER   2
 READING ON UNIT   16 WITH FORMAT: (24I3)              

        1   2   3   4   5   6   7   8   9  10  11  12  13  14  15  16  17
 ........................................................................
   1    0   0   0   0   0   0   0   0   0   0   0   0   0   0   0   0   0
   2    0   0   0   0   0   0   0   0   0   0   0   0   0   0   0   0   0
   3    0   0   0   0   0   0   0   0   0   0   0   0   0   0   0   0   0
   4    0   0   0   0   0   0   0   0   0   0   0   0   0   0   0   0   0
   5    0   0   0   0   0   0   0   0   0   0   0   0   0   0   0   0   0
   6    0   0   0   0   0   0   0   0   0   0   0   0   0   0   0   0   0
   7    0   0   0   0   0   0   0   0   0   0   0   0   0   0   0   0   0
   8    0   0   0   0   0   0   0   1   1   1   0   0   0   0   0   0   0
   9    0   0   0   0   0   0   0   1   1   1   0   0   0   0   0   0   0
  10    0   0   0   0   0   0   0   1   1   1   0   0   0   0   0   0   0
  11    0   0   0   0   0   0   0   0   0   0   0   0   0   0   0   0   0
  12    0   0   0   0   0   0   0   0   0   0   0   0   0   0   0   0   0
  13    0   0   0   0   0   0   0   0   0   0   0   0   0   0   0   0   0
  14    0   0   0   0   0   0   0   0   0   0   0   0   0   0   0   0   0
  15    0   0   0   0   0   0   0   0   0   0   0   0   0   0   0   0   0
  16    0   0   0   0   0   0   0   0   0   0   0   0   0   0   0   0   0
  17    0   0   0   0   0   0   0   0   0   0   0   0   0   0   0   0   0

            LAKE ID ARRAY =              0 FOR LAYER   3

            LAKE ID ARRAY =              0 FOR LAYER   4

            LAKE ID ARRAY =              0 FOR LAYER   5





   LAKEBED LEAKANCE ARRAY =  0.100000     FOR LAYER   1

   LAKEBED LEAKANCE ARRAY =  0.100000     FOR LAYER   2

   LAKEBED LEAKANCE ARRAY =  0.100000     FOR LAYER   3

   LAKEBED LEAKANCE ARRAY =  0.100000     FOR LAYER   4

   LAKEBED LEAKANCE ARRAY =  0.100000     FOR LAYER   5

       LOCATIONS, LAKE #, INTERFACE TYPE FOR GRID CELLS ADJACENT TO LAKES:
     -----------------------------------------------------------------------
     LAYER #    ROW #    COLUMN #   LAKE #  INTERFACE TYPE  LAKEBED LEAKANCE
         1         7         6         1         2             1.000E-01
         1         8         6         1         2             1.000E-01
         1         9         6         1         2             1.000E-01
         1        10         6         1         2             1.000E-01
         1        11         6         1         2             1.000E-01
         1         6         7         1         3             1.000E-01
         2         7         7         1         6             1.000E-01
         2         8         7         1         6             1.000E-01
         2         8         7         1         2             1.000E-01
         2         9         7         1         6             1.000E-01
         2         9         7         1         2             1.000E-01
         2        10         7         1         6             1.000E-01
         2        10         7         1         2             1.000E-01
         2        11         7         1         6             1.000E-01
         1        12         7         1         4             1.000E-01
         1         6         8         1         3             1.000E-01
         2         7         8         1         6             1.000E-01
         2         7         8         1         3             1.000E-01
         3         8         8         1         6             1.000E-01
         3         9         8         1         6             1.000E-01
         3        10         8         1         6             1.000E-01
         2        11         8         1         6             1.000E-01
         2        11         8         1         4             1.000E-01
         1        12         8         1         4             1.000E-01
         1         6         9         1         3             1.000E-01
         2         7         9         1         6             1.000E-01
         2         7         9         1         3             1.000E-01
         3         8         9         1         6             1.000E-01
         3         9         9         1         6             1.000E-01
         3        10         9         1         6             1.000E-01
         2        11         9         1         6             1.000E-01
         2        11         9         1         4             1.000E-01
         1        12         9         1         4             1.000E-01
         1         6        10         1         3             1.000E-01
         2         7        10         1         6             1.000E-01
         2         7        10         1         3             1.000E-01
         3         8        10         1         6             1.000E-01
         3         9        10         1         6             1.000E-01
         3        10        10         1         6             1.000E-01
         2        11        10         1         6             1.000E-01
         2        11        10         1         4             1.000E-01
         1        12        10         1         4             1.000E-01
         1         6        11         1         3             1.000E-01
         2         7        11         1         6             1.000E-01
         2         8        11         1         6             1.000E-01
         2         8        11         1         1             1.000E-01
         2         9        11         1         6             1.000E-01
         2         9        11         1         1             1.000E-01
         2        10        11         1         6             1.000E-01
         2        10        11         1         1             1.000E-01
         2        11        11         1         6             1.000E-01
         1        12        11         1         4             1.000E-01
         1         7        12         1         1             1.000E-01
         1         8        12         1         1             1.000E-01
         1         9        12         1         1             1.000E-01
         1        10        12         1         1             1.000E-01
         1        11        12         1         1             1.000E-01

     NUMBER OF LAKE-AQUIFER CELL INTERFACES =    57


 STAGE/VOLUME RELATION FOR LAKE  1

      STAGE        VOLUME        AREA

   9.70000E+01   0.00000E+00   2.25000E+06
   9.96867E+01   6.04500E+06   2.25000E+06
   1.02373E+02   1.20900E+07   2.25000E+06
   1.05060E+02   1.81350E+07   2.25000E+06
   1.07747E+02   3.49267E+07   6.25000E+06
   1.10433E+02   5.17183E+07   6.25000E+06
   1.13120E+02   6.85100E+07   6.25000E+06
   1.15807E+02   8.53017E+07   6.25000E+06
   1.18493E+02   1.02093E+08   6.25000E+06
   1.21180E+02   1.18885E+08   6.25000E+06
   1.23867E+02   1.35677E+08   6.25000E+06
   1.26553E+02   1.52468E+08   6.25000E+06
   1.29240E+02   1.69260E+08   6.25000E+06
   1.31927E+02   1.86052E+08   6.25000E+06
   1.34613E+02   2.02843E+08   6.25000E+06
   1.37300E+02   2.19635E+08   6.25000E+06
   1.39987E+02   2.36427E+08   6.25000E+06
   1.42673E+02   2.53218E+08   6.25000E+06
   1.45360E+02   2.70010E+08   6.25000E+06
   1.48047E+02   2.86802E+08   6.25000E+06
   1.50733E+02   3.03593E+08   6.25000E+06
   1.53420E+02   3.20385E+08   6.25000E+06
   1.56107E+02   3.37177E+08   6.25000E+06
   1.58793E+02   3.53968E+08   6.25000E+06
   1.61480E+02   3.70760E+08   6.25000E+06
   1.64167E+02   3.87552E+08   6.25000E+06
   1.66853E+02   4.04343E+08   6.25000E+06
   1.69540E+02   4.21135E+08   6.25000E+06
   1.72227E+02   4.37927E+08   6.25000E+06
   1.74913E+02   4.54718E+08   6.25000E+06
   1.77600E+02   4.71510E+08   6.25000E+06
   1.80287E+02   4.88302E+08   6.25000E+06
   1.82973E+02   5.05093E+08   6.25000E+06
   1.85660E+02   5.21885E+08   6.25000E+06
   1.88347E+02   5.38677E+08   6.25000E+06
   1.91033E+02   5.55468E+08   6.25000E+06
   1.93720E+02   5.72260E+08   6.25000E+06
   1.96407E+02   5.89052E+08   6.25000E+06
   1.99093E+02   6.05843E+08   6.25000E+06
   2.01780E+02   6.22635E+08   6.25000E+06
   2.04467E+02   6.39427E+08   6.25000E+06
   2.07153E+02   6.56218E+08   6.25000E+06
   2.09840E+02   6.73010E+08   6.25000E+06
   2.12527E+02   6.89802E+08   6.25000E+06
   2.15213E+02   7.06593E+08   6.25000E+06
   2.17900E+02   7.23385E+08   6.25000E+06
   2.20587E+02   7.40177E+08   6.25000E+06
   2.23273E+02   7.56968E+08   6.25000E+06
   2.25960E+02   7.73760E+08   6.25000E+06
   2.28647E+02   7.90552E+08   6.25000E+06
   2.31333E+02   8.07343E+08   6.25000E+06
   2.34020E+02   8.24135E+08   6.25000E+06
   2.36707E+02   8.40927E+08   6.25000E+06
   2.39393E+02   8.57718E+08   6.25000E+06
   2.42080E+02   8.74510E+08   6.25000E+06
   2.44767E+02   8.91302E+08   6.25000E+06
   2.47453E+02   9.08093E+08   6.25000E+06
   2.50140E+02   9.24885E+08   6.25000E+06
   2.52827E+02   9.41677E+08   6.25000E+06
   2.55513E+02   9.58468E+08   6.25000E+06
   2.58200E+02   9.75260E+08   6.25000E+06
   2.60887E+02   9.92052E+08   6.25000E+06
   2.63573E+02   1.00884E+09   6.25000E+06
   2.66260E+02   1.02563E+09   6.25000E+06
   2.68947E+02   1.04243E+09   6.25000E+06
   2.71633E+02   1.05922E+09   6.25000E+06
   2.74320E+02   1.07601E+09   6.25000E+06
   2.77007E+02   1.09280E+09   6.25000E+06
   2.79693E+02   1.10959E+09   6.25000E+06
   2.82380E+02   1.12638E+09   6.25000E+06
   2.85067E+02   1.14318E+09   6.25000E+06
   2.87753E+02   1.15997E+09   6.25000E+06
   2.90440E+02   1.17676E+09   6.25000E+06
   2.93127E+02   1.19355E+09   6.25000E+06
   2.95813E+02   1.21034E+09   6.25000E+06
   2.98500E+02   1.22713E+09   6.25000E+06
   3.01187E+02   1.24393E+09   6.25000E+06
   3.03873E+02   1.26072E+09   6.25000E+06
   3.06560E+02   1.27751E+09   6.25000E+06
   3.09247E+02   1.29430E+09   6.25000E+06
   3.11933E+02   1.31109E+09   6.25000E+06
   3.14620E+02   1.32789E+09   6.25000E+06
   3.17307E+02   1.34468E+09   6.25000E+06
   3.19993E+02   1.36147E+09   6.25000E+06
   3.22680E+02   1.37826E+09   6.25000E+06
   3.25367E+02   1.39505E+09   6.25000E+06
   3.28053E+02   1.41184E+09   6.25000E+06
   3.30740E+02   1.42864E+09   6.25000E+06
   3.33427E+02   1.44543E+09   6.25000E+06
   3.36113E+02   1.46222E+09   6.25000E+06
   3.38800E+02   1.47901E+09   6.25000E+06
   3.41487E+02   1.49580E+09   6.25000E+06
   3.44173E+02   1.51259E+09   6.25000E+06
   3.46860E+02   1.52939E+09   6.25000E+06
   3.49547E+02   1.54618E+09   6.25000E+06
   3.52233E+02   1.56297E+09   6.25000E+06
   3.54920E+02   1.57976E+09   6.25000E+06
   3.57607E+02   1.59655E+09   6.25000E+06
   3.60293E+02   1.61334E+09   6.25000E+06
   3.62980E+02   1.63014E+09   6.25000E+06
   3.65667E+02   1.64693E+09   6.25000E+06
   3.68353E+02   1.66372E+09   6.25000E+06
   3.71040E+02   1.68051E+09   6.25000E+06
   3.73727E+02   1.69730E+09   6.25000E+06
   3.76413E+02   1.71409E+09   6.25000E+06
   3.79100E+02   1.73089E+09   6.25000E+06
   3.81787E+02   1.74768E+09   6.25000E+06
   3.84473E+02   1.76447E+09   6.25000E+06
   3.87160E+02   1.78126E+09   6.25000E+06
   3.89847E+02   1.79805E+09   6.25000E+06
   3.92533E+02   1.81484E+09   6.25000E+06
   3.95220E+02   1.83164E+09   6.25000E+06
   3.97907E+02   1.84843E+09   6.25000E+06
   4.00593E+02   1.86522E+09   6.25000E+06
   4.03280E+02   1.88201E+09   6.25000E+06
   4.05967E+02   1.89880E+09   6.25000E+06
   4.08653E+02   1.91559E+09   6.25000E+06
   4.11340E+02   1.93239E+09   6.25000E+06
   4.14027E+02   1.94918E+09   6.25000E+06
   4.16713E+02   1.96597E+09   6.25000E+06
   4.19400E+02   1.98276E+09   6.25000E+06
   4.22087E+02   1.99955E+09   6.25000E+06
   4.24773E+02   2.01634E+09   6.25000E+06
   4.27460E+02   2.03314E+09   6.25000E+06
   4.30147E+02   2.04993E+09   6.25000E+06
   4.32833E+02   2.06672E+09   6.25000E+06
   4.35520E+02   2.08351E+09   6.25000E+06
   4.38207E+02   2.10030E+09   6.25000E+06
   4.40893E+02   2.11709E+09   6.25000E+06
   4.43580E+02   2.13389E+09   6.25000E+06
   4.46267E+02   2.15068E+09   6.25000E+06
   4.48953E+02   2.16747E+09   6.25000E+06
   4.51640E+02   2.18426E+09   6.25000E+06
   4.54327E+02   2.20105E+09   6.25000E+06
   4.57013E+02   2.21784E+09   6.25000E+06
   4.59700E+02   2.23464E+09   6.25000E+06
   4.62387E+02   2.25143E+09   6.25000E+06
   4.65073E+02   2.26822E+09   6.25000E+06
   4.67760E+02   2.28501E+09   6.25000E+06
   4.70447E+02   2.30180E+09   6.25000E+06
   4.73133E+02   2.31859E+09   6.25000E+06
   4.75820E+02   2.33539E+09   6.25000E+06
   4.78507E+02   2.35218E+09   6.25000E+06
   4.81193E+02   2.36897E+09   6.25000E+06
   4.83880E+02   2.38576E+09   6.25000E+06
   4.86567E+02   2.40255E+09   6.25000E+06
   4.89253E+02   2.41934E+09   6.25000E+06
   4.91940E+02   2.43614E+09   6.25000E+06
   4.94627E+02   2.45293E+09   6.25000E+06
   4.97313E+02   2.46972E+09   6.25000E+06
   5.00000E+02   2.48651E+09   6.25000E+06


 NUMBER OF CONNECTED LAKE SYSTEMS IN SIMULATION IS   0

 LAKE       PRECIP     EVAP     RUNOFF   WITHDRAW   BOTTOM     AREA
----------------------------------------------------------------------
   1     1.160E-02 1.030E-02 0.000E+00  0.000E+00 9.700E+01 6.250E+06




         C               INTERFACE CONDUCTANCES BETWEEN LAKE AND AQUIFER CELLS
   L     O          (IF TYPE = 6, CONDUCTANCE (L^2/T) IS BETWEEN AQUIFER CELL AND OVERLYING LAKE CELL.)
   A     L  L  T    (IF TYPE = 1 TO 4, CONDUCTANCES ARE PER UNIT SATURATED THICKNESS (L/T).)
   Y  R  U  A  Y
   E  O  M  K  P                        LAKEBED      C O N D U C T A N C E S
   R  W  N  E  E     DELTA Y   DELTA X  LEAKANCE   LAKEBED   AQUIFER  COMBINED
 _______________________________________________________________________________
   1  7  6  1  2    5.00E+02  1.00E+03  1.00E-01  5.00E+01  3.00E+01  1.875E+01
   1  8  6  1  2    5.00E+02  1.00E+03  1.00E-01  5.00E+01  3.00E+01  1.875E+01
   1  9  6  1  2    5.00E+02  1.00E+03  1.00E-01  5.00E+01  3.00E+01  1.875E+01
   1 10  6  1  2    5.00E+02  1.00E+03  1.00E-01  5.00E+01  3.00E+01  1.875E+01
   1 11  6  1  2    5.00E+02  1.00E+03  1.00E-01  5.00E+01  3.00E+01  1.875E+01
   1  6  7  1  3    1.00E+03  5.00E+02  1.00E-01  5.00E+01  3.00E+01  1.875E+01
   2  7  7  1  6    5.00E+02  5.00E+02  1.00E-01  2.50E+04  1.50E+06  2.459E+04
   2  8  7  1  6    5.00E+02  5.00E+02  1.00E-01  2.50E+04  1.50E+06  2.459E+04
   2  8  7  1  2    5.00E+02  5.00E+02  1.00E-01  5.00E+01  6.00E+01  2.727E+01
   2  9  7  1  6    5.00E+02  5.00E+02  1.00E-01  2.50E+04  1.50E+06  2.459E+04
   2  9  7  1  2    5.00E+02  5.00E+02  1.00E-01  5.00E+01  6.00E+01  2.727E+01
   2 10  7  1  6    5.00E+02  5.00E+02  1.00E-01  2.50E+04  1.50E+06  2.459E+04
   2 10  7  1  2    5.00E+02  5.00E+02  1.00E-01  5.00E+01  6.00E+01  2.727E+01
   2 11  7  1  6    5.00E+02  5.00E+02  1.00E-01  2.50E+04  1.50E+06  2.459E+04
   1 12  7  1  4    1.00E+03  5.00E+02  1.00E-01  5.00E+01  3.00E+01  1.875E+01
   1  6  8  1  3    1.00E+03  5.00E+02  1.00E-01  5.00E+01  3.00E+01  1.875E+01
   2  7  8  1  6    5.00E+02  5.00E+02  1.00E-01  2.50E+04  1.50E+06  2.459E+04
   2  7  8  1  3    5.00E+02  5.00E+02  1.00E-01  5.00E+01  6.00E+01  2.727E+01
   3  8  8  1  6    5.00E+02  5.00E+02  1.00E-01  2.50E+04  1.50E+06  2.459E+04
   3  9  8  1  6    5.00E+02  5.00E+02  1.00E-01  2.50E+04  1.50E+06  2.459E+04
   3 10  8  1  6    5.00E+02  5.00E+02  1.00E-01  2.50E+04  1.50E+06  2.459E+04
   2 11  8  1  6    5.00E+02  5.00E+02  1.00E-01  2.50E+04  1.50E+06  2.459E+04
   2 11  8  1  4    5.00E+02  5.00E+02  1.00E-01  5.00E+01  6.00E+01  2.727E+01
   1 12  8  1  4    1.00E+03  5.00E+02  1.00E-01  5.00E+01  3.00E+01  1.875E+01
   1  6  9  1  3    1.00E+03  5.00E+02  1.00E-01  5.00E+01  3.00E+01  1.875E+01
   2  7  9  1  6    5.00E+02  5.00E+02  1.00E-01  2.50E+04  1.50E+06  2.459E+04
   2  7  9  1  3    5.00E+02  5.00E+02  1.00E-01  5.00E+01  6.00E+01  2.727E+01
   3  8  9  1  6    5.00E+02  5.00E+02  1.00E-01  2.50E+04  1.50E+06  2.459E+04
   3  9  9  1  6    5.00E+02  5.00E+02  1.00E-01  2.50E+04  1.50E+06  2.459E+04
   3 10  9  1  6    5.00E+02  5.00E+02  1.00E-01  2.50E+04  1.50E+06  2.459E+04
   2 11  9  1  6    5.00E+02  5.00E+02  1.00E-01  2.50E+04  1.50E+06  2.459E+04
   2 11  9  1  4    5.00E+02  5.00E+02  1.00E-01  5.00E+01  6.00E+01  2.727E+01
   1 12  9  1  4    1.00E+03  5.00E+02  1.00E-01  5.00E+01  3.00E+01  1.875E+01
   1  6 10  1  3    1.00E+03  5.00E+02  1.00E-01  5.00E+01  3.00E+01  1.875E+01
   2  7 10  1  6    5.00E+02  5.00E+02  1.00E-01  2.50E+04  1.50E+06  2.459E+04
   2  7 10  1  3    5.00E+02  5.00E+02  1.00E-01  5.00E+01  6.00E+01  2.727E+01
   3  8 10  1  6    5.00E+02  5.00E+02  1.00E-01  2.50E+04  1.50E+06  2.459E+04
   3  9 10  1  6    5.00E+02  5.00E+02  1.00E-01  2.50E+04  1.50E+06  2.459E+04
   3 10 10  1  6    5.00E+02  5.00E+02  1.00E-01  2.50E+04  1.50E+06  2.459E+04
   2 11 10  1  6    5.00E+02  5.00E+02  1.00E-01  2.50E+04  1.50E+06  2.459E+04
   2 11 10  1  4    5.00E+02  5.00E+02  1.00E-01  5.00E+01  6.00E+01  2.727E+01
   1 12 10  1  4    1.00E+03  5.00E+02  1.00E-01  5.00E+01  3.00E+01  1.875E+01
   1  6 11  1  3    1.00E+03  5.00E+02  1.00E-01  5.00E+01  3.00E+01  1.875E+01
   2  7 11  1  6    5.00E+02  5.00E+02  1.00E-01  2.50E+04  1.50E+06  2.459E+04
   2  8 11  1  6    5.00E+02  5.00E+02  1.00E-01  2.50E+04  1.50E+06  2.459E+04
   2  8 11  1  1    5.00E+02  5.00E+02  1.00E-01  5.00E+01  6.00E+01  2.727E+01
   2  9 11  1  6    5.00E+02  5.00E+02  1.00E-01  2.50E+04  1.50E+06  2.459E+04
   2  9 11  1  1    5.00E+02  5.00E+02  1.00E-01  5.00E+01  6.00E+01  2.727E+01
   2 10 11  1  6    5.00E+02  5.00E+02  1.00E-01  2.50E+04  1.50E+06  2.459E+04
   2 10 11  1  1    5.00E+02  5.00E+02  1.00E-01  5.00E+01  6.00E+01  2.727E+01
   2 11 11  1  6    5.00E+02  5.00E+02  1.00E-01  2.50E+04  1.50E+06  2.459E+04
   1 12 11  1  4    1.00E+03  5.00E+02  1.00E-01  5.00E+01  3.00E+01  1.875E+01
   1  7 12  1  1    5.00E+02  1.00E+03  1.00E-01  5.00E+01  3.00E+01  1.875E+01
   1  8 12  1  1    5.00E+02  1.00E+03  1.00E-01  5.00E+01  3.00E+01  1.875E+01
   1  9 12  1  1    5.00E+02  1.00E+03  1.00E-01  5.00E+01  3.00E+01  1.875E+01
   1 10 12  1  1    5.00E+02  1.00E+03  1.00E-01  5.00E+01  3.00E+01  1.875E+01
   1 11 12  1  1    5.00E+02  1.00E+03  1.00E-01  5.00E+01  3.00E+01  1.875E+01


     NOTE: INFORMATION ABOUT CALCULATED LAKE/AQUIFER CONDUCTANCES WHEN USING BCF PACKAGE FOLLOWS: 

 IF WETDRY FLAG NOT TURNED ON, VERTICAL LEAKANCES ARE NOT SAVED:
 THEREFORE, LAKE/AQUIFER CONDUCTANCES ARE BASED SOLELY ON LAKEBED SPECIFICATION




 
[...]
   1  2.6910E+08  6.6000E+07  0.0000E+00  0.0000E+00

         WATER    CONNECTED LAKE   CHANGE       PERCENT
 LAKE     USE         INFLUX       IN VOL.    DISCREPANCY
   1   0.0000E+00   0.0000E+00   2.3928E+08      0.000
 --------------------------------------------------------------------------------

 
 SOLVING FOR HEAD 
     4 ITERATIONS FOR TIME STEP  96 IN STRESS PERIOD    1

 MAXIMUM HEAD CHANGE FOR EACH ITERATION:

    HEAD CHANGE   HEAD CHANGE   HEAD CHANGE   HEAD CHANGE   HEAD CHANGE
  LAYER,ROW,COL LAYER,ROW,COL LAYER,ROW,COL LAYER,ROW,COL LAYER,ROW,COL
 ----------------------------------------------------------------------
     0.9393E-03    0.2807E-03    0.1656E-03    0.8817E-04
  (  3,  9,  9) (  5,  6,  8) (  5, 12,  9) (  3, 10, 13)



Solver Convergence Information:
                              HClose:  8.8170347E-5
                              RClose:  0.0562747
                           L2-RClose:  0.1676205
                         Rel-Vol-Err:  2.2509867E-8
 

 HEAD/DRAWDOWN PRINTOUT FLAG = 0     TOTAL BUDGET PRINTOUT FLAG = 0
 CELL-BY-CELL FLOW TERM FLAG = 1

 OUTPUT FLAGS FOR ALL LAYERS ARE THE SAME:
   HEAD    DRAWDOWN  HEAD  DRAWDOWN
 PRINTOUT  PRINTOUT  SAVE    SAVE
 ----------------------------------
     0         0       0       0


     0  LAKE CELLS ARE DRY.

 PERIOD     1     TIME STEP    96     TIME STEP LENGTH  1.0508E+02
 PERIOD TIME  4.5583E+03     TOTAL SIMULATION TIME  4.5583E+03


                 HYDROLOGIC BUDGET SUMMARIES FOR SIMULATED LAKES
     (ALL FLUID FLUXES ARE VOLUMES ADDED TO THE LAKE DURING PRESENT TIME STEP)
     ----------------------------------------------------------------------------------------
 LAKE    STAGE         VOLUME     VOL. CHANGE      PRECIP     EVAPORATION        RUNOFF
   1  1.482852E+02  2.882925E+08  5.055412E+03  7.618097E+06  6.764345E+06  0.000000E+00

            GROUND WATER            SURFACE WATER        WATER
 LAKE    INFLOW     OUTFLOW      INFLOW     OUTFLOW       USE
   1  1.7740E+06  2.6226E+06  0.0000E+00  0.0000E+00  0.0000E+00

      CONNECTED LAKE   TIME-STEP         STAGE-CHANGE          PERCENT
 LAKE    INFLUX      SURFACE AREA   TIME STEP  CUMULATIVE    DISCREPANCY
   1   0.0000E+00     6.2500E+06   8.0887E-04  3.8285E+01       0.001
 --------------------------------------------------------------------------------



            CUMULATIVE HYDROLOGIC BUDGET SUMMARIES FOR SIMULATED LAKES
     (ALL FLUID FLUXES ARE SUMS OF VOLUMES ADDED TO THE LAKE SINCE INITIAL TIME)
     ---------------------------------------------------------------------------
 LAKE       PRECIP       EVAP       RUNOFF
   1     3.3047E+08  2.9344E+08  0.0000E+00

            GROUND WATER            SURFACE WATER
 LAKE    INFLOW     OUTFLOW      INFLOW     OUTFLOW
   1  2.7087E+08  6.8623E+07  0.0000E+00  0.0000E+00

         WATER    CONNECTED LAKE   CHANGE       PERCENT
 LAKE     USE         INFLUX       IN VOL.    DISCREPANCY
   1   0.0000E+00   0.0000E+00   2.3928E+08      0.000
 --------------------------------------------------------------------------------

 
 SOLVING FOR HEAD 
     4 ITERATIONS FOR TIME STEP  97 IN STRESS PERIOD    1

 MAXIMUM HEAD CHANGE FOR EACH ITERATION:

    HEAD CHANGE   HEAD CHANGE   HEAD CHANGE   HEAD CHANGE   HEAD CHANGE
  LAYER,ROW,COL LAYER,ROW,COL LAYER,ROW,COL LAYER,ROW,COL LAYER,ROW,COL
 ----------------------------------------------------------------------
     0.7391E-03    0.2210E-03    0.1333E-03    0.7175E-04
  (  3,  9,  9) (  5,  6,  8) (  5, 12,  9) (  3, 10, 13)



Solver Convergence Information:
                              HClose:  7.1752685E-5
                              RClose:  0.0455095
                           L2-RClose:  0.1365744
                         Rel-Vol-Err:  1.8203813E-8
 

 HEAD/DRAWDOWN PRINTOUT FLAG = 0     TOTAL BUDGET PRINTOUT FLAG = 0
 CELL-BY-CELL FLOW TERM FLAG = 1

 OUTPUT FLAGS FOR ALL LAYERS ARE THE SAME:
   HEAD    DRAWDOWN  HEAD  DRAWDOWN
 PRINTOUT  PRINTOUT  SAVE    SAVE
 ----------------------------------
     0         0       0       0


     0  LAKE CELLS ARE DRY.

 PERIOD     1     TIME STEP    97     TIME STEP LENGTH  1.0718E+02
 PERIOD TIME  4.6654E+03     TOTAL SIMULATION TIME  4.6654E+03


                 HYDROLOGIC BUDGET SUMMARIES FOR SIMULATED LAKES
     (ALL FLUID FLUXES ARE VOLUMES ADDED TO THE LAKE DURING PRESENT TIME STEP)
     ----------------------------------------------------------------------------------------
 LAKE    STAGE         VOLUME     VOL. CHANGE      PRECIP     EVAPORATION        RUNOFF
   1  1.482859E+02  2.882966E+08  4.097732E+03  7.770459E+06  6.899632E+06  0.000000E+00

            GROUND WATER            SURFACE WATER        WATER
 LAKE    INFLOW     OUTFLOW      INFLOW     OUTFLOW       USE
   1  1.8090E+06  2.6756E+06  0.0000E+00  0.0000E+00  0.0000E+00

      CONNECTED LAKE   TIME-STEP         STAGE-CHANGE          PERCENT
 LAKE    INFLUX      SURFACE AREA   TIME STEP  CUMULATIVE    DISCREPANCY
   1   0.0000E+00     6.2500E+06   6.5564E-04  3.8286E+01       0.001
 --------------------------------------------------------------------------------



            CUMULATIVE HYDROLOGIC BUDGET SUMMARIES FOR SIMULATED LAKES
     (ALL FLUID FLUXES ARE SUMS OF VOLUMES ADDED TO THE LAKE SINCE INITIAL TIME)
     ---------------------------------------------------------------------------
 LAKE       PRECIP       EVAP       RUNOFF
   1     3.3824E+08  3.0034E+08  0.0000E+00

            GROUND WATER            SURFACE WATER
 LAKE    INFLOW     OUTFLOW      INFLOW     OUTFLOW
   1  2.7268E+08  7.1298E+07  0.0000E+00  0.0000E+00

         WATER    CONNECTED LAKE   CHANGE       PERCENT
 LAKE     USE         INFLUX       IN VOL.    DISCREPANCY
   1   0.0000E+00   0.0000E+00   2.3929E+08      0.000
 --------------------------------------------------------------------------------

 
 SOLVING FOR HEAD 
     4 ITERATIONS FOR TIME STEP  98 IN STRESS PERIOD    1

 MAXIMUM HEAD CHANGE FOR EACH ITERATION:

    HEAD CHANGE   HEAD CHANGE   HEAD CHANGE   HEAD CHANGE   HEAD CHANGE
  LAYER,ROW,COL LAYER,ROW,COL LAYER,ROW,COL LAYER,ROW,COL LAYER,ROW,COL
 ----------------------------------------------------------------------
     0.5990E-03    0.1774E-03    0.1079E-03    0.5862E-04
  (  3,  9,  9) (  5,  6,  8) (  5, 12,  9) (  3, 10, 13)



Solver Convergence Information:
                              HClose:  5.8620062E-5
                              RClose:  0.0371024
                           L2-RClose:  0.1115662
                         Rel-Vol-Err:  1.4840978E-8
 

 HEAD/DRAWDOWN PRINTOUT FLAG = 0     TOTAL BUDGET PRINTOUT FLAG = 0
 CELL-BY-CELL FLOW TERM FLAG = 1

 OUTPUT FLAGS FOR ALL LAYERS ARE THE SAME:
   HEAD    DRAWDOWN  HEAD  DRAWDOWN
 PRINTOUT  PRINTOUT  SAVE    SAVE
 ----------------------------------
     0         0       0       0


     0  LAKE CELLS ARE DRY.

 PERIOD     1     TIME STEP    98     TIME STEP LENGTH  1.0932E+02
 PERIOD TIME  4.7748E+03     TOTAL SIMULATION TIME  4.7748E+03


                 HYDROLOGIC BUDGET SUMMARIES FOR SIMULATED LAKES
     (ALL FLUID FLUXES ARE VOLUMES ADDED TO THE LAKE DURING PRESENT TIME STEP)
     ----------------------------------------------------------------------------------------
 LAKE    STAGE         VOLUME     VOL. CHANGE      PRECIP     EVAPORATION        RUNOFF
   1  1.482864E+02  2.882999E+08  3.296327E+03  7.925868E+06  7.037624E+06  0.000000E+00

            GROUND WATER            SURFACE WATER        WATER
 LAKE    INFLOW     OUTFLOW      INFLOW     OUTFLOW       USE
   1  1.8448E+06  2.7296E+06  0.0000E+00  0.0000E+00  0.0000E+00

      CONNECTED LAKE   TIME-STEP         STAGE-CHANGE          PERCENT
 LAKE    INFLUX      SURFACE AREA   TIME STEP  CUMULATIVE    DISCREPANCY
   1   0.0000E+00     6.2500E+06   5.2741E-04  3.8286E+01       0.001
 --------------------------------------------------------------------------------



            CUMULATIVE HYDROLOGIC BUDGET SUMMARIES FOR SIMULATED LAKES
     (ALL FLUID FLUXES ARE SUMS OF VOLUMES ADDED TO THE LAKE SINCE INITIAL TIME)
     ---------------------------------------------------------------------------
 LAKE       PRECIP       EVAP       RUNOFF
   1     3.4617E+08  3.0737E+08  0.0000E+00

            GROUND WATER            SURFACE WATER
 LAKE    INFLOW     OUTFLOW      INFLOW     OUTFLOW
   1  2.7452E+08  7.4028E+07  0.0000E+00  0.0000E+00

         WATER    CONNECTED LAKE   CHANGE       PERCENT
 LAKE     USE         INFLUX       IN VOL.    DISCREPANCY
   1   0.0000E+00   0.0000E+00   2.3929E+08      0.000
 --------------------------------------------------------------------------------

 
 SOLVING FOR HEAD 
     3 ITERATIONS FOR TIME STEP  99 IN STRESS PERIOD    1

 MAXIMUM HEAD CHANGE FOR EACH ITERATION:

    HEAD CHANGE   HEAD CHANGE   HEAD CHANGE   HEAD CHANGE   HEAD CHANGE
  LAYER,ROW,COL LAYER,ROW,COL LAYER,ROW,COL LAYER,ROW,COL LAYER,ROW,COL
 ----------------------------------------------------------------------
     0.4819E-03    0.1423E-03    0.8696E-04
  (  3,  9,  9) (  5,  6,  8) (  5, 12,  9)



Solver Convergence Information:
                              HClose:  8.6959060E-5
                              RClose:  0.1013687
                           L2-RClose:  0.4927984
                         Rel-Vol-Err:  4.6744347E-9
 

 HEAD/DRAWDOWN PRINTOUT FLAG = 0     TOTAL BUDGET PRINTOUT FLAG = 0
 CELL-BY-CELL FLOW TERM FLAG = 1

 OUTPUT FLAGS FOR ALL LAYERS ARE THE SAME:
   HEAD    DRAWDOWN  HEAD  DRAWDOWN
 PRINTOUT  PRINTOUT  SAVE    SAVE
 ----------------------------------
     0         0       0       0


     0  LAKE CELLS ARE DRY.

 PERIOD     1     TIME STEP    99     TIME STEP LENGTH  1.1151E+02
 PERIOD TIME  4.8863E+03     TOTAL SIMULATION TIME  4.8863E+03


                 HYDROLOGIC BUDGET SUMMARIES FOR SIMULATED LAKES
     (ALL FLUID FLUXES ARE VOLUMES ADDED TO THE LAKE DURING PRESENT TIME STEP)
     ----------------------------------------------------------------------------------------
 LAKE    STAGE         VOLUME     VOL. CHANGE      PRECIP     EVAPORATION        RUNOFF
   1  1.482867E+02  2.883017E+08  1.807916E+03  8.084385E+06  7.178377E+06  0.000000E+00

            GROUND WATER            SURFACE WATER        WATER
 LAKE    INFLOW     OUTFLOW      INFLOW     OUTFLOW       USE
   1  1.8813E+06  2.7847E+06  0.0000E+00  0.0000E+00  0.0000E+00

      CONNECTED LAKE   TIME-STEP         STAGE-CHANGE          PERCENT
 LAKE    INFLUX      SURFACE AREA   TIME STEP  CUMULATIVE    DISCREPANCY
   1   0.0000E+00     6.2500E+06   2.8927E-04  3.8287E+01       0.008
 --------------------------------------------------------------------------------



            CUMULATIVE HYDROLOGIC BUDGET SUMMARIES FOR SIMULATED LAKES
     (ALL FLUID FLUXES ARE SUMS OF VOLUMES ADDED TO THE LAKE SINCE INITIAL TIME)
     ---------------------------------------------------------------------------
 LAKE       PRECIP       EVAP       RUNOFF
   1     3.5425E+08  3.1455E+08  0.0000E+00

            GROUND WATER            SURFACE WATER
 LAKE    INFLOW     OUTFLOW      INFLOW     OUTFLOW
   1  2.7641E+08  7.6813E+07  0.0000E+00  0.0000E+00

         WATER    CONNECTED LAKE   CHANGE       PERCENT
 LAKE     USE         INFLUX       IN VOL.    DISCREPANCY
   1   0.0000E+00   0.0000E+00   2.3929E+08      0.000
 --------------------------------------------------------------------------------

 
 SOLVING FOR HEAD 
     3 ITERATIONS FOR TIME STEP 100 IN STRESS PERIOD    1

 MAXIMUM HEAD CHANGE FOR EACH ITERATION:

    HEAD CHANGE   HEAD CHANGE   HEAD CHANGE   HEAD CHANGE   HEAD CHANGE
  LAYER,ROW,COL LAYER,ROW,COL LAYER,ROW,COL LAYER,ROW,COL LAYER,ROW,COL
 ----------------------------------------------------------------------
     0.2643E-03    0.1001E-03    0.6129E-04
  (  3,  9,  9) (  3, 10, 12) (  5, 12,  9)



Solver Convergence Information:
                              HClose:  6.1289983E-5
                              RClose:  0.0745367
                           L2-RClose:  0.3812044
                         Rel-Vol-Err:  2.6210427E-9
 

 HEAD/DRAWDOWN PRINTOUT FLAG = 1     TOTAL BUDGET PRINTOUT FLAG = 1
 CELL-BY-CELL FLOW TERM FLAG = 1

 OUTPUT FLAGS FOR EACH LAYER:
          HEAD    DRAWDOWN  HEAD  DRAWDOWN
 LAYER  PRINTOUT  PRINTOUT  SAVE    SAVE
 -----------------------------------------
    1       0         0       0       0
    2       0         0       0       0
    3       0         0       0       0
    4       0         0       0       0
    5       1         0       0       0


     0  LAKE CELLS ARE DRY.

 PERIOD     1     TIME STEP   100     TIME STEP LENGTH  1.1374E+02
 PERIOD TIME  5.0000E+03     TOTAL SIMULATION TIME  5.0000E+03


                 HYDROLOGIC BUDGET SUMMARIES FOR SIMULATED LAKES
     (ALL FLUID FLUXES ARE VOLUMES ADDED TO THE LAKE DURING PRESENT TIME STEP)
     ----------------------------------------------------------------------------------------
 LAKE    STAGE         VOLUME     VOL. CHANGE      PRECIP     EVAPORATION        RUNOFF
   1  1.482870E+02  2.883035E+08  1.837897E+03  8.246073E+06  7.321944E+06  0.000000E+00

            GROUND WATER            SURFACE WATER        WATER
 LAKE    INFLOW     OUTFLOW      INFLOW     OUTFLOW       USE
   1  1.9188E+06  2.8406E+06  0.0000E+00  0.0000E+00  0.0000E+00

      CONNECTED LAKE   TIME-STEP         STAGE-CHANGE          PERCENT
 LAKE    INFLUX      SURFACE AREA   TIME STEP  CUMULATIVE    DISCREPANCY
   1   0.0000E+00     6.2500E+06   2.9406E-04  3.8287E+01       0.005
 --------------------------------------------------------------------------------



            CUMULATIVE HYDROLOGIC BUDGET SUMMARIES FOR SIMULATED LAKES
     (ALL FLUID FLUXES ARE SUMS OF VOLUMES ADDED TO THE LAKE SINCE INITIAL TIME)
     ---------------------------------------------------------------------------
 LAKE       PRECIP       EVAP       RUNOFF
   1     3.6250E+08  3.2187E+08  0.0000E+00

            GROUND WATER            SURFACE WATER
 LAKE    INFLOW     OUTFLOW      INFLOW     OUTFLOW
   1  2.7832E+08  7.9653E+07  0.0000E+00  0.0000E+00

         WATER    CONNECTED LAKE   CHANGE       PERCENT
 LAKE     USE         INFLUX       IN VOL.    DISCREPANCY
   1   0.0000E+00   0.0000E+00   2.3929E+08      0.000
 --------------------------------------------------------------------------------

1
              HEAD IN LAYER   5 AT END OF TIME STEP 100 IN STRESS PERIOD    1
  ---------------------------------------------------------------------------

          1      2      3      4      5      6      7      8      9     10
 .........................................................................
   1   160.0  158.8  157.3  155.8  154.2  152.7  151.5  150.8  150.0  149.2
   2   160.0  158.6  156.7  155.1  153.4  151.9  150.7  149.9  149.1  148.4
   3   160.0  158.4  156.3  154.5  152.8  151.1  150.0  149.2  148.4  147.6
   4   160.0  158.3  156.1  154.2  152.4  150.8  149.6  148.8  148.1  147.3
   5   160.0  158.2  155.9  154.0  152.2  150.5  149.4  148.6  147.9  147.2
   6   160.0  158.2  155.9  153.9  152.1  150.3  149.1  148.5  148.0  147.5
   7   160.0  158.2  155.9  153.8  152.0  150.1  148.4  148.3  148.3  148.3
   8   160.0  158.2  155.8  153.8  151.9  150.0  148.3  148.3  148.3  148.3
   9   160.0  158.2  155.8  153.8  151.9  150.0  148.3  148.3  148.3  148.3
  10   160.0  158.2  155.8  153.8  151.9  150.0  148.3  148.3  148.3  148.3
  11   160.0  158.2  155.9  153.8  152.0  150.1  148.4  148.3  148.3  148.3
  12   160.0  158.2  155.9  153.9  152.1  150.3  149.1  148.5  148.0  147.5
  13   160.0  158.2  155.9  154.0  152.2  150.5  149.4  148.6  147.9  147.2
  14   160.0  158.3  156.1  154.2  152.4  150.8  149.6  148.8  148.1  147.3
  15   160.0  158.4  156.3  154.5  152.8  151.1  150.0  149.2  148.4  147.6
  16   160.0  158.6  156.7  155.1  153.4  151.9  150.7  149.9  149.1  148.4
  17   160.0  158.8  157.3  155.8  154.2  152.7  151.5  150.8  150.0  149.2
1
              HEAD IN LAYER   5 AT END OF TIME STEP 100 IN STRESS PERIOD    1
  ---------------------------------------------------------------------------

         11     12     13     14     15     16     17
 ....................................................
   1   148.5  147.3  145.8  144.2  142.7  141.2  140.0
   2   147.6  146.4  144.9  143.4  141.9  140.6  140.0
   3   146.9  145.7  144.2  142.7  141.4  140.3  140.0
   4   146.5  145.4  143.8  142.4  141.1  140.2  140.0
   5   146.5  145.3  143.7  142.3  141.0  140.1  140.0
   6   146.9  145.5  143.8  142.2  141.0  140.1  140.0
   7   148.2  145.9  143.9  142.3  141.0  140.1  140.0
   8   148.2  146.0  143.9  142.3  141.0  140.1  140.0
   9   148.2  146.0  143.9  142.3  141.0  140.1  140.0
  10   148.2  146.0  143.9  142.3  141.0  140.1  140.0
  11   148.2  145.9  143.9  142.3  141.0  140.1  140.0
  12   146.9  145.5  143.8  142.2  141.0  140.1  140.0
  13   146.5  145.3  143.7  142.3  141.0  140.1  140.0
  14   146.5  145.4  143.8  142.4  141.1  140.2  140.0
  15   146.9  145.7  144.2  142.7  141.4  140.3  140.0
  16   147.6  146.4  144.9  143.4  141.9  140.6  140.0
  17   148.5  147.3  145.8  144.2  142.7  141.2  140.0



  -------------------------------------------------------------------------------------
  VOLUMETRIC BUDGET FOR ENTIRE MODEL AT END OF TIME STEP  100 IN STRESS PERIOD      1
  -------------------------------------------------------------------------------------

     CUMULATIVE VOLUMES      L**3       RATES FOR THIS TIME STEP      L**3/T
     ------------------                 ------------------------

           IN:                                      IN:
           ---                                      ---
             STORAGE =       33100.9319               STORAGE =           0.0000
       CONSTANT HEAD =  1290823006.2374         CONSTANT HEAD =      166881.8547
                  ET =           0.0000                    ET =           0.0000
            RECHARGE =  8700000000.0000              RECHARGE =     1740000.0000
     SPECIFIED FLOWS =           0.0000       SPECIFIED FLOWS =           0.0000
       LAKE  SEEPAGE =    79653259.8641         LAKE  SEEPAGE =       24974.4812

            TOTAL IN = 10070509367.0334              TOTAL IN =     1931856.3360

          OUT:                                     OUT:
          ----                                     ----
             STORAGE =  1011713327.2574               STORAGE =          12.7627
       CONSTANT HEAD =    38468805.9504         CONSTANT HEAD =        9490.6400
                  ET =  8742002920.7244                    ET =     1905476.4456
            RECHARGE =           0.0000              RECHARGE =           0.0000
     SPECIFIED FLOWS =           0.0000       SPECIFIED FLOWS =           0.0000
       LAKE  SEEPAGE =   278324000.7002         LAKE  SEEPAGE =       16870.2513

           TOTAL OUT = 10070509054.6324             TOTAL OUT =     1931850.0996

            IN - OUT =         312.4010              IN - OUT =           6.2364

 PERCENT DISCREPANCY =           0.00     PERCENT DISCREPANCY =           0.00


          TIME SUMMARY AT END OF TIME STEP   100 IN STRESS PERIOD      1
                    SECONDS     MINUTES      HOURS       DAYS        YEARS
                    -----------------------------------------------------------
   TIME STEP LENGTH 9.82704E+06 1.63784E+05  2729.7      113.74     0.31140    
 STRESS PERIOD TIME 4.32000E+08 7.20000E+06 1.20000E+05  5000.0      13.689    
         TOTAL TIME 4.32000E+08 7.20000E+06 1.20000E+05  5000.0      13.689    
 

 Final Remark:

   The solver successfully met the user supplied convergence criteria, HCLOSE and RCLOSE, for all 100 time steps.

   Please check the "VOLUMETRIC BUDGET FOR ENTIRE MODEL" to ensure that mass rate balance errors are acceptable for all time steps.

   The cumulative mass error for the entire simulation is 0.00 %




 Simulation finished at  


 Which had an elapsed run time of: 0.0 seconds


    OneWater Simulation Now Complete


