
      MMMMMMM                                       MM      MMM     MM
    MMM     MMM    MM      M   MMMMMMMM             LM     DM M     ML     MM     MMMMMMMMM  MMMMMMMM  MMMMMMMM
   MM         MM   MMM     M   MM                    MM    MM M     M     MMMM        M      M         MM     NM
   MM         MM   MM M    M   MM                    MM    M  MM   MM    MM  MM       M      M         MM      M
   MM         MM   MM  M   M   MMMMMMMM               MN  MM   M   MM   MM    MM      M      MMMMMMM   MMMMMMMMM
   MM         MM   MM   M  M   MM         MMMMMMM     MM  M    MM MM    MMMMMMMM      M      M         MM   MM
   MM         MM   MM    M M   MM                     LM MM    NM MM   MM      MM     M      M         MM    MM
    MM       NM    MM     MM   MM                      M M      M M   MN        MM    M      M         MM     MM
     MMMMMMMMN     MM      M   MMMMMMMM                7MM      7MM  MN          MM   M      MMMMMMMM  MM      MM


 MODFLOW-OWHM v2.0.01  


                        MODFLOW
            ONE-WATER HYDROLOGIC-FLOW MODEL

    U.S. GEOLOGICAL SURVEY MODULAR FINITE-DIFFERENCE 
           CONJUNCTIVE USE SIMULATION PROGRAM

                     Version 2.0

 Release: 01          4/23/2020

 Includes:
          MODFLOW-2005 Version 1.12.0   02/03/2017
          MODFLOW-FMP  Version 4.00.0   04/23/2017
          MODFLOW-SWR  Version 1.04.0   09/15/2016
          MODFLOW-SWI  Version 2.00.0   07/22/2013
          MODFLOW-LGR  Version 2.00.0   09/19/2013
          MODFLOW-NWT  Version 1.2.0    03/01/2020
          MODFLOW-CFP  Version 1.09.57  09/12/2017


 OneWater Simulation Initiated at 


 LIST FILE: ./output/l1b2k.lst
      UNIT: 1

OPENING PACKAGES

BAS6 PACKAGE OPENED.
BCF  PACKAGE OPENED.
EVT  PACKAGE OPENED.
RCH  PACKAGE OPENED.
SIP  PACKAGE OPENED.
OC   PACKAGE OPENED.
LAK  PACKAGE OPENED.
DIS  PACKAGE OPENED.
FHB  PACKAGE OPENED.

NOTIFICATION: A FILE UNIT NUMBER WAS FOUND FOR EITHER THE LIST FILE OR A PACAKGE.
IT WILL BE USED EVEN THOUGH UNIT NUMBERS FOR THE LIST FILE AND PACKAGES ARE NOW OPTIONAL.
[IT IS RECOMMENDED TO STILL USE A UNIT NUMBER FOR DATA and DATA(BINARY) ]


 BAS -- BASIC PACKAGE, VERSION OWHM INPUT READ FROM UNIT     7
 
MODFLOW was compiled using uniform precision (Precision => Number of meaningful digits in numbers)
Precision of REAL and DOUBLE PRECISION variables: 15

 DISCRETIZATION INPUT DATA READ FROM UNIT   14

-- READING DIS PACKAGE INPUT --

# l1b2k
# MODFLOW-2005 Example problem documented in:
#   Harbaugh, A.W., 2005, MODFLOW-2005, the U.S. Geological Survey modular ground-water model -- the Ground-Water Flow Process: U.S. Geological Survey Techniques and Methods 6-A16.
#   Harbaugh, A.W., Banta, E.R., Hill, M.C. and McDonald, M.G., 2000, MODFLOW-2000, The U.S. Geological Survey Modular Ground-Water Model - User Guide to Modularization Concepts and the Ground-Water Flow Process: U.S Geological Survey Open-File Report 2000-92, 121 p., https://doi.org/10.3133/ofr200092
#   Merritt, M.L., and Konikow, L.F., 2000, Documentation of a Computer Program to Simulate Lake-Aquifer Interaction Using the MODFLOW Ground-Water Flow Model and the MOC3D Solute-Transport Model: U.S. Geological Survey Water-Resources Investigations Report 00-4167, 146 p.
#
#      -Comments are preceded by a # sign
#
#-----------------------------------------------------------------------------------------------------------------------------------------------------


*** DIS COORDINATE SYSTEM NOT SEPECIFIED ***
DEFAULT VALUES APPLIED ARE 0° ROTATION
WITH THE ORIGIN (0,0) LOCATED AT THE MODEL'S LOWER LEFT CORNER




DIS COORDINATE SYSTEM SEPECIFIED WITH:
GRID ROTATION OF 0.0°
WITH THE ORIGIN LOCATED AT THE OUTER MOST CORNER OF MODEL CELL [17,1] WITH:
X-COORDINATE:0.0
Y-COORDINATE:0.0
    5 LAYERS        17 ROWS        17 COLUMNS
      1 STRESS PERIOD(S) IN SIMULATION
 MODEL TIME UNIT IS DAYS
 MODEL LENGTH UNIT IS UNDEFINED
  Confining bed flag for each layer:
   0   0   0   0   0



                               DELR
 READING ON UNIT   14 WITH FORMAT: (10F13.0)           
   250.00       1000.0       1000.0       1000.0       1000.0       1000.0       500.00       500.00       500.00       500.00    
   500.00       1000.0       1000.0       1000.0       1000.0       1000.0       250.00    



                               DELC
 READING ON UNIT   14 WITH FORMAT: (10F13.0)           
   250.00       1000.0       1000.0       1000.0       1000.0       1000.0       500.00       500.00       500.00       500.00    
   500.00       1000.0       1000.0       1000.0       1000.0       1000.0       250.00    

 TOP ELEVATION OF LAYER 1 =   500.000    

   MODEL LAYER BOTTOM EL. =   107.000     FOR LAYER   1

   MODEL LAYER BOTTOM EL. =   97.0000     FOR LAYER   2

   MODEL LAYER BOTTOM EL. =   87.0000     FOR LAYER   3

   MODEL LAYER BOTTOM EL. =   77.0000     FOR LAYER   4

   MODEL LAYER BOTTOM EL. =   67.0000     FOR LAYER   5


 STRESS PERIOD     LENGTH       TIME STEPS     MULTIPLIER FOR DELT    SS FLAG  (OPTIONAL TIME STEP LENGTH)
 ---------------------------------------------------------------------------------------------------
        1         1.000000          1                  1.00000         SS

 STEADY-STATE SIMULATION




-- READING BAS PACKAGE INPUT --

# l1b2k
# MODFLOW-2005 Example problem documented in:
#   Harbaugh, A.W., 2005, MODFLOW-2005, the U.S. Geological Survey modular ground-water model -- the Ground-Water Flow Process: U.S. Geological Survey Techniques and Methods 6-A16.
#   Harbaugh, A.W., Banta, E.R., Hill, M.C. and McDonald, M.G., 2000, MODFLOW-2000, The U.S. Geological Survey Modular Ground-Water Model - User Guide to Modularization Concepts and the Ground-Water Flow Process: U.S Geological Survey Open-File Report 2000-92, 121 p., https://doi.org/10.3133/ofr200092
#   Merritt, M.L., and Konikow, L.F., 2000, Documentation of a Computer Program to Simulate Lake-Aquifer Interaction Using the MODFLOW Ground-Water Flow Model and the MOC3D Solute-Transport Model: U.S. Geological Survey Water-Resources Investigations Report 00-4167, 146 p.
#
# Input modified for MODFLOW-OWHM by including the BAS options:
#    NOFREE  BUDGETDB ./output/l1b2k_VolumetricBudget.txt  CUMULATIVE_HEAD_CHANGE ./output/l1b2k_CumHCHG.txt  PRINT_HEAD NPER ./output/l1b2k_Head.txt
#
#-----------------------------------------------------------------------------------------------------------------------------------------------------
#
#Hypothetical simulator of lake and surficial aquifer interaction. ------------
#Shows convergence to equilibrium in transient mode.


 THE BAS PACKAGE NOW DEFAULTS TO FREE FORMAT.
 USE OPTION "NOFREE" TO DISABLE FREE FORMAT.



########################################################################################################

                           WARNING_MESSAGE

         THE FOLLOWING COMMENTS WERE PASSED TO THE WARNING ROUTINE

THE WARNING IS BELIEVED TO HAVE ORIGINATED FROM THE FOLLOWING FILE:
"examples\mf-2005\l1b2k.ba6"

THE GUESSED LINE THAT THE WARNING OCCURED ON IS:
"NOFREE  BUDGETDB ./output/l1b2k_VolumetricBudget.txt  CUMULATIVE_HEAD_CHANGE ./output/l1b2k_CumHCHG.txt  PRINT_HEAD NPER ./output/l1b2k_Head.txt"

THE DESRIPTION OF THE WARNING IS:

FOUND BAS PACKAGE OPTION KEYWORDS ALONG PACKAGE "OPTIONS LINE" (ie Data Set 1)

The BAS package options should be within an "OPTIONS BLOCK" rather than along the first line of input.

The BAS package will attempt to read the options line, but some advanced options may fail to load due to their complex input,
For example the option "SHIFT_STRT" uses ULOAD to read NLAY shift values, which would crash under certain ULOAD keyword combinations.

Also note that if any of the options specify a GENERIC_OUTPUT file, 
then there may be additional warnings about a BAS OPTION not being a recognized GENERIC_OUTPUT post-keyword.
These warnings can be ignored, since its a post-keyword warning pertaining to the GENERIC_OUTPUT file and 
the BAS OPTION is still processed by the BAS package.

It is recommended for new models to use "BEGIN OPTIONS" and then have one option per line and
end the options block with the word "END" in place of single line of options.

For example:

BEGIN OPTIONS

  START_DATE  4/23/1901
  SHOWPROGRESS
  NOCBC
  BUDGETDB ./output/VolumetricBudget.txt
  PAUSE

END OPTIONS

             - Note that "OPTIONS BLOCK" maybe empty or entirely not present,
               nor is it required to specify an "OPTIONS LINE"

             - DO NOT specify both an "OPTIONS BLOCK" and "OPTIONS LINE" at the same time.

########################################################################################################



 NOW READING BAS OPTIONS

 FOUND OPTION: NOFREE
     THE FREE FORMAT OPTION IS DISABLED (INPUT USES FIXED FORMATTED READ)

 FOUND OPTION: BUDGETDB


########################################################################################################

                           WARNING_MESSAGE

         THE FOLLOWING COMMENTS WERE PASSED TO THE WARNING ROUTINE

THE WARNING IS BELIEVED TO HAVE ORIGINATED FROM THE FOLLOWING FILE:
"examples\mf-2005\l1b2k.ba6"

THE GUESSED LINE THAT THE WARNING OCCURED ON IS:
"NOFREE  BUDGETDB ./output/l1b2k_VolumetricBudget.txt  CUMULATIVE_HEAD_CHANGE ./output/l1b2k_CumHCHG.txt  PRINT_HEAD NPER ./output/l1b2k_Head.txt"

THE DESRIPTION OF THE WARNING IS:

...CHECK_FOR_POST_KEY WARNINGS...
 THE FOLLOWING MESSAGES WERE PASSED WHILE CHECKING FOR ANY ADDITIONAL KEYWORDS ON LOADED LINE.


FAILED TO IDENTIFY THE FOLLOWING POST-KEYWORD: 

"CUMULATIVE_HEAD_CHANGE"

IT WILL BE IGNORED AND NO FURTHER KEYWORDS WILL BE CHECKED/INCLUDED TO THE RIGHT OF IT.
TO SUPRESS THIS WARNING PLEASE PLACE A "#" SYMBOL TO THE LEFT OF THE WORD TO INDICATE EVERYTHING TO THE RIGHT OF THE # IS A COMMENT

########################################################################################################



 FOUND OPTION: CUMULATIVE_HEAD_CHANGE
    THIS OPTION IS ONLY USEFUL FOR MODEL RESULT COMPARISON WITH DIFFERENT CODE COMPARISONS.



########################################################################################################

                           WARNING_MESSAGE

         THE FOLLOWING COMMENTS WERE PASSED TO THE WARNING ROUTINE

THE WARNING IS BELIEVED TO HAVE ORIGINATED FROM THE FOLLOWING FILE:
"examples\mf-2005\l1b2k.ba6"

THE GUESSED LINE THAT THE WARNING OCCURED ON IS:
"NOFREE  BUDGETDB ./output/l1b2k_VolumetricBudget.txt  CUMULATIVE_HEAD_CHANGE ./output/l1b2k_CumHCHG.txt  PRINT_HEAD NPER ./output/l1b2k_Head.txt"

THE DESRIPTION OF THE WARNING IS:

...CHECK_FOR_POST_KEY WARNINGS...
 THE FOLLOWING MESSAGES WERE PASSED WHILE CHECKING FOR ANY ADDITIONAL KEYWORDS ON LOADED LINE.


FAILED TO IDENTIFY THE FOLLOWING POST-KEYWORD: 

"PRINT_HEAD"

IT WILL BE IGNORED AND NO FURTHER KEYWORDS WILL BE CHECKED/INCLUDED TO THE RIGHT OF IT.
TO SUPRESS THIS WARNING PLEASE PLACE A "#" SYMBOL TO THE LEFT OF THE WORD TO INDICATE EVERYTHING TO THE RIGHT OF THE # IS A COMMENT

########################################################################################################



 FOUND OPTION: PRINT_HEAD    SP    TS   FILE
                              1     1   ./output/l1b2k_Head.txt

 THE MAX STORAGE FOR PROPERTIES DEFINED BY PARAMETERS IS: 
 MAX STORAGE OF PARAMETERS (MXPAR)  IS       2000
 MAX STORAGE OF INSTANCES  (MXINST) IS      50000
 MAX STORAGE OF CLUSTERS   (MXCLST) IS    2000000




                     BOUNDARY ARRAY FOR LAYER   1
 READING ON UNIT    7 WITH FORMAT: (20I4)              

        1   2   3   4   5   6   7   8   9  10  11  12  13  14  15  16  17
 ........................................................................
   1   -1  -1  -1  -1  -1  -1  -1  -1  -1  -1  -1  -1  -1  -1  -1  -1  -1
   2   -1   1   1   1   1   1   1   1   1   1   1   1   1   1   1   1  -1
   3   -1   1   1   1   1   1   1   1   1   1   1   1   1   1   1   1  -1
   4   -1   1   1   1   1   1   1   1   1   1   1   1   1   1   1   1  -1
   5   -1   1   1   1   1   1   1   1   1   1   1   1   1   1   1   1  -1
   6   -1   1   1   1   1   1   1   1   1   1   1   1   1   1   1   1  -1
   7   -1   1   1   1   1   1   0   0   0   0   0   1   1   1   1   1  -1
   8   -1   1   1   1   1   1   0   0   0   0   0   1   1   1   1   1  -1
   9   -1   1   1   1   1   1   0   0   0   0   0   1   1   1   1   1  -1
  10   -1   1   1   1   1   1   0   0   0   0   0   1   1   1   1   1  -1
  11   -1   1   1   1   1   1   0   0   0   0   0   1   1   1   1   1  -1
  12   -1   1   1   1   1   1   1   1   1   1   1   1   1   1   1   1  -1
  13   -1   1   1   1   1   1   1   1   1   1   1   1   1   1   1   1  -1
  14   -1   1   1   1   1   1   1   1   1   1   1   1   1   1   1   1  -1
  15   -1   1   1   1   1   1   1   1   1   1   1   1   1   1   1   1  -1
  16   -1   1   1   1   1   1   1   1   1   1   1   1   1   1   1   1  -1
  17   -1  -1  -1  -1  -1  -1  -1  -1  -1  -1  -1  -1  -1  -1  -1  -1  -1



                     BOUNDARY ARRAY FOR LAYER   2
 READING ON UNIT    7 WITH FORMAT: (20I4)              

        1   2   3   4   5   6   7   8   9  10  11  12  13  14  15  16  17
 ........................................................................
   1   -1  -1  -1  -1  -1  -1  -1  -1  -1  -1  -1  -1  -1  -1  -1  -1  -1
   2   -1   1   1   1   1   1   1   1   1   1   1   1   1   1   1   1  -1
   3   -1   1   1   1   1   1   1   1   1   1   1   1   1   1   1   1  -1
   4   -1   1   1   1   1   1   1   1   1   1   1   1   1   1   1   1  -1
   5   -1   1   1   1   1   1   1   1   1   1   1   1   1   1   1   1  -1
   6   -1   1   1   1   1   1   1   1   1   1   1   1   1   1   1   1  -1
   7   -1   1   1   1   1   1   1   1   1   1   1   1   1   1   1   1  -1
   8   -1   1   1   1   1   1   1   0   0   0   1   1   1   1   1   1  -1
   9   -1   1   1   1   1   1   1   0   0   0   1   1   1   1   1   1  -1
  10   -1   1   1   1   1   1   1   0   0   0   1   1   1   1   1   1  -1
  11   -1   1   1   1   1   1   1   1   1   1   1   1   1   1   1   1  -1
  12   -1   1   1   1   1   1   1   1   1   1   1   1   1   1   1   1  -1
  13   -1   1   1   1   1   1   1   1   1   1   1   1   1   1   1   1  -1
  14   -1   1   1   1   1   1   1   1   1   1   1   1   1   1   1   1  -1
  15   -1   1   1   1   1   1   1   1   1   1   1   1   1   1   1   1  -1
  16   -1   1   1   1   1   1   1   1   1   1   1   1   1   1   1   1  -1
  17   -1  -1  -1  -1  -1  -1  -1  -1  -1  -1  -1  -1  -1  -1  -1  -1  -1



                     BOUNDARY ARRAY FOR LAYER   3
 READING ON UNIT    7 WITH FORMAT: (20I4)              

        1   2   3   4   5   6   7   8   9  10  11  12  13  14  15  16  17
 ........................................................................
   1   -1  -1  -1  -1  -1  -1  -1  -1  -1  -1  -1  -1  -1  -1  -1  -1  -1
   2   -1   1   1   1   1   1   1   1   1   1   1   1   1   1   1   1  -1
   3   -1   1   1   1   1   1   1   1   1   1   1   1   1   1   1   1  -1
   4   -1   1   1   1   1   1   1   1   1   1   1   1   1   1   1   1  -1
   5   -1   1   1   1   1   1   1   1   1   1   1   1   1   1   1   1  -1
   6   -1   1   1   1   1   1   1   1   1   1   1   1   1   1   1   1  -1
   7   -1   1   1   1   1   1   1   1   1   1   1   1   1   1   1   1  -1
   8   -1   1   1   1   1   1   1   1   1   1   1   1   1   1   1   1  -1
   9   -1   1   1   1   1   1   1   1   1   1   1   1   1   1   1   1  -1
  10   -1   1   1   1   1   1   1   1   1   1   1   1   1   1   1   1  -1
  11   -1   1   1   1   1   1   1   1   1   1   1   1   1   1   1   1  -1
  12   -1   1   1   1   1   1   1   1   1   1   1   1   1   1   1   1  -1
  13   -1   1   1   1   1   1   1   1   1   1   1   1   1   1   1   1  -1
  14   -1   1   1   1   1   1   1   1   1   1   1   1   1   1   1   1  -1
  15   -1   1   1   1   1   1   1   1   1   1   1   1   1   1   1   1  -1
  16   -1   1   1   1   1   1   1   1   1   1   1   1   1   1   1   1  -1
  17   -1  -1  -1  -1  -1  -1  -1  -1  -1  -1  -1  -1  -1  -1  -1  -1  -1



                     BOUNDARY ARRAY FOR LAYER   4
 READING ON UNIT    7 WITH FORMAT: (20I4)              

        1   2   3   4   5   6   7   8   9  10  11  12  13  14  15  16  17
 ........................................................................
   1   -1  -1  -1  -1  -1  -1  -1  -1  -1  -1  -1  -1  -1  -1  -1  -1  -1
   2   -1   1   1   1   1   1   1   1   1   1   1   1   1   1   1   1  -1
   3   -1   1   1   1   1   1   1   1   1   1   1   1   1   1   1   1  -1
   4   -1   1   1   1   1   1   1   1   1   1   1   1   1   1   1   1  -1
   5   -1   1   1   1   1   1   1   1   1   1   1   1   1   1   1   1  -1
   6   -1   1   1   1   1   1   1   1   1   1   1   1   1   1   1   1  -1
   7   -1   1   1   1   1   1   1   1   1   1   1   1   1   1   1   1  -1
   8   -1   1   1   1   1   1   1   1   1   1   1   1   1   1   1   1  -1
   9   -1   1   1   1   1   1   1   1   1   1   1   1   1   1   1   1  -1
  10   -1   1   1   1   1   1   1   1   1   1   1   1   1   1   1   1  -1
  11   -1   1   1   1   1   1   1   1   1   1   1   1   1   1   1   1  -1
  12   -1   1   1   1   1   1   1   1   1   1   1   1   1   1   1   1  -1
  13   -1   1   1   1   1   1   1   1   1   1   1   1   1   1   1   1  -1
  14   -1   1   1   1   1   1   1   1   1   1   1   1   1   1   1   1  -1
  15   -1   1   1   1   1   1   1   1   1   1   1   1   1   1   1   1  -1
  16   -1   1   1   1   1   1   1   1   1   1   1   1   1   1   1   1  -1
  17   -1  -1  -1  -1  -1  -1  -1  -1  -1  -1  -1  -1  -1  -1  -1  -1  -1



                     BOUNDARY ARRAY FOR LAYER   5
 READING ON UNIT    7 WITH FORMAT: (20I4)              

        1   2   3   4   5   6   7   8   9  10  11  12  13  14  15  16  17
 ........................................................................
   1   -1  -1  -1  -1  -1  -1  -1  -1  -1  -1  -1  -1  -1  -1  -1  -1  -1
   2   -1   1   1   1   1   1   1   1   1   1   1   1   1   1   1   1  -1
   3   -1   1   1   1   1   1   1   1   1   1   1   1   1   1   1   1  -1
   4   -1   1   1   1   1   1   1   1   1   1   1   1   1   1   1   1  -1
   5   -1   1   1   1   1   1   1   1   1   1   1   1   1   1   1   1  -1
   6   -1   1   1   1   1   1   1   1   1   1   1   1   1   1   1   1  -1
   7   -1   1   1   1   1   1   1   1   1   1   1   1   1   1   1   1  -1
   8   -1   1   1   1   1   1   1   1   1   1   1   1   1   1   1   1  -1
   9   -1   1   1   1   1   1   1   1   1   1   1   1   1   1   1   1  -1
  10   -1   1   1   1   1   1   1   1   1   1   1   1   1   1   1   1  -1
  11   -1   1   1   1   1   1   1   1   1   1   1   1   1   1   1   1  -1
  12   -1   1   1   1   1   1   1   1   1   1   1   1   1   1   1   1  -1
  13   -1   1   1   1   1   1   1   1   1   1   1   1   1   1   1   1  -1
  14   -1   1   1   1   1   1   1   1   1   1   1   1   1   1   1   1  -1
  15   -1   1   1   1   1   1   1   1   1   1   1   1   1   1   1   1  -1
  16   -1   1   1   1   1   1   1   1   1   1   1   1   1   1   1   1  -1
  17   -1  -1  -1  -1  -1  -1  -1  -1  -1  -1  -1  -1  -1  -1  -1  -1  -1

 AQUIFER HEAD WILL BE SET TO -999.0 AT ALL NO-FLOW NODES (IBOUND=0).


             INITIAL HEAD =   115.000     FOR LAYER   1

             INITIAL HEAD =   115.000     FOR LAYER   2

             INITIAL HEAD =   115.000     FOR LAYER   3

             INITIAL HEAD =   115.000     FOR LAYER   4

             INITIAL HEAD =   115.000     FOR LAYER   5

-- READING OC PACKAGE INPUT --

# l1b2k
# MODFLOW-2005 Example problem documented in:
#   Harbaugh, A.W., 2005, MODFLOW-2005, the U.S. Geological Survey modular ground-water model -- the Ground-Water Flow Process: U.S. Geological Survey Techniques and Methods 6-A16.
#   Harbaugh, A.W., Banta, E.R., Hill, M.C. and McDonald, M.G., 2000, MODFLOW-2000, The U.S. Geological Survey Modular Ground-Water Model - User Guide to Modularization Concepts and the Ground-Water Flow Process: U.S Geological Survey Open-File Report 2000-92, 121 p., https://doi.org/10.3133/ofr200092
#   Merritt, M.L., and Konikow, L.F., 2000, Documentation of a Computer Program to Simulate Lake-Aquifer Interaction Using the MODFLOW Ground-Water Flow Model and the MOC3D Solute-Transport Model: U.S. Geological Survey Water-Resources Investigations Report 00-4167, 146 p.
#
#-----------------------------------------------------------------------------------------------------------------------------------------------------


 OUTPUT CONTROL IS SPECIFIED EVERY TIME STEP
 HEAD PRINT FORMAT CODE IS -14    DRAWDOWN PRINT FORMAT CODE IS   9
 HEADS WILL BE SAVED ON UNIT   18    DRAWDOWNS WILL BE SAVED ON UNIT   19

 BCF -- BLOCK-CENTERED FLOW PACKAGE, VERSION 7, 5/2/2005
         INPUT READ FROM UNIT 10

-- READING BCF PACKAGE INPUT --

# l1b2k
# MODFLOW-2005 Example problem documented in:
#   Harbaugh, A.W., 2005, MODFLOW-2005, the U.S. Geological Survey modular ground-water model -- the Ground-Water Flow Process: U.S. Geological Survey Techniques and Methods 6-A16.
#   Harbaugh, A.W., Banta, E.R., Hill, M.C. and McDonald, M.G., 2000, MODFLOW-2000, The U.S. Geological Survey Modular Ground-Water Model - User Guide to Modularization Concepts and the Ground-Water Flow Process: U.S Geological Survey Open-File Report 2000-92, 121 p., https://doi.org/10.3133/ofr200092
#   Merritt, M.L., and Konikow, L.F., 2000, Documentation of a Computer Program to Simulate Lake-Aquifer Interaction Using the MODFLOW Ground-Water Flow Model and the MOC3D Solute-Transport Model: U.S. Geological Survey Water-Resources Investigations Report 00-4167, 146 p.
#
#      -Comments are preceded by a # sign
#
#-----------------------------------------------------------------------------------------------------------------------------------------------------

 STEADY-STATE SIMULATION
 HEAD AT CELLS THAT CONVERT TO DRY=   0.0000    
 WETTING CAPABILITY IS ACTIVE
 WETTING FACTOR=   1.00000     WETTING ITERATION INTERVAL=   1
 FLAG THAT SPECIFIES THE EQUATION TO USE FOR HEAD AT WETTED CELLS=   0
      LAYER  LAYER-TYPE CODE     INTERBLOCK T
      --------------------------------------------
         1            1          0 -- HARMONIC    
         2            3          0 -- HARMONIC    
         3            3          0 -- HARMONIC    
         4            3          0 -- HARMONIC    
         5            3          0 -- HARMONIC    

 COLUMN TO ROW ANISOTROPY =   1.00000    

    HYD. COND. ALONG ROWS =   30.0000     FOR LAYER   1

 VERT HYD COND /THICKNESS =   3.00000     FOR LAYER   1



                   WETDRY PARAMETER FOR LAYER   1
 READING ON UNIT   10 WITH FORMAT: (10F13.0)           

         1     2     3     4     5     6     7     8     9    10    11    12    13    14    15    16    17
 .........................................................................................................
   1    0.0   0.0   0.0   0.0   0.0   0.0   0.0   0.0   0.0   0.0   0.0   0.0   0.0   0.0   0.0   0.0   0.0
   2    0.0  -0.2  -0.2  -0.2  -0.2  -0.2  -0.2  -0.2  -0.2  -0.2  -0.2  -0.2  -0.2  -0.2  -0.2  -0.2   0.0
   3    0.0  -0.2  -0.2  -0.2  -0.2  -0.2  -0.2  -0.2  -0.2  -0.2  -0.2  -0.2  -0.2  -0.2  -0.2  -0.2   0.0
   4    0.0  -0.2  -0.2  -0.2  -0.2  -0.2  -0.2  -0.2  -0.2  -0.2  -0.2  -0.2  -0.2  -0.2  -0.2  -0.2   0.0
   5    0.0  -0.2  -0.2  -0.2  -0.2  -0.2  -0.2  -0.2  -0.2  -0.2  -0.2  -0.2  -0.2  -0.2  -0.2  -0.2   0.0
   6    0.0  -0.2  -0.2  -0.2  -0.2  -0.2  -0.2  -0.2  -0.2  -0.2  -0.2  -0.2  -0.2  -0.2  -0.2  -0.2   0.0
   7    0.0  -0.2  -0.2  -0.2  -0.2  -0.2   0.0   0.0   0.0   0.0   0.0  -0.2  -0.2  -0.2  -0.2  -0.2   0.0
   8    0.0  -0.2  -0.2  -0.2  -0.2  -0.2   0.0   0.0   0.0   0.0   0.0  -0.2  -0.2  -0.2  -0.2  -0.2   0.0
   9    0.0  -0.2  -0.2  -0.2  -0.2  -0.2   0.0   0.0   0.0   0.0   0.0  -0.2  -0.2  -0.2  -0.2  -0.2   0.0
  10    0.0  -0.2  -0.2  -0.2  -0.2  -0.2   0.0   0.0   0.0   0.0   0.0  -0.2  -0.2  -0.2  -0.2  -0.2   0.0
  11    0.0  -0.2  -0.2  -0.2  -0.2  -0.2   0.0   0.0   0.0   0.0   0.0  -0.2  -0.2  -0.2  -0.2  -0.2   0.0
  12    0.0  -0.2  -0.2  -0.2  -0.2  -0.2  -0.2  -0.2  -0.2  -0.2  -0.2  -0.2  -0.2  -0.2  -0.2  -0.2   0.0
  13    0.0  -0.2  -0.2  -0.2  -0.2  -0.2  -0.2  -0.2  -0.2  -0.2  -0.2  -0.2  -0.2  -0.2  -0.2  -0.2   0.0
  14    0.0  -0.2  -0.2  -0.2  -0.2  -0.2  -0.2  -0.2  -0.2  -0.2  -0.2  -0.2  -0.2  -0.2  -0.2  -0.2   0.0
  15    0.0  -0.2  -0.2  -0.2  -0.2  -0.2  -0.2  -0.2  -0.2  -0.2  -0.2  -0.2  -0.2  -0.2  -0.2  -0.2   0.0
  16    0.0  -0.2  -0.2  -0.2  -0.2  -0.2  -0.2  -0.2  -0.2  -0.2  -0.2  -0.2  -0.2  -0.2  -0.2  -0.2   0.0
  17    0.0   0.0   0.0   0.0   0.0   0.0   0.0   0.0   0.0   0.0   0.0   0.0   0.0   0.0   0.0   0.0   0.0

    HYD. COND. ALONG ROWS =   30.0000     FOR LAYER   2

 VERT HYD COND /THICKNESS =   3.00000     FOR LAYER   2



                   WETDRY PARAMETER FOR LAYER   2
 READING ON UNIT   10 WITH FORMAT: (10F13.0)           

         1     2     3     4     5     6     7     8     9    10    11    12    13    14    15    16    17
 .........................................................................................................
   1    0.0   0.0   0.0   0.0   0.0   0.0   0.0   0.0   0.0   0.0   0.0   0.0   0.0   0.0   0.0   0.0   0.0
   2    0.0  -0.2  -0.2  -0.2  -0.2  -0.2  -0.2  -0.2  -0.2  -0.2  -0.2  -0.2  -0.2  -0.2  -0.2  -0.2   0.0
   3    0.0  -0.2  -0.2  -0.2  -0.2  -0.2  -0.2  -0.2  -0.2  -0.2  -0.2  -0.2  -0.2  -0.2  -0.2  -0.2   0.0
   4    0.0  -0.2  -0.2  -0.2  -0.2  -0.2  -0.2  -0.2  -0.2  -0.2  -0.2  -0.2  -0.2  -0.2  -0.2  -0.2   0.0
   5    0.0  -0.2  -0.2  -0.2  -0.2  -0.2  -0.2  -0.2  -0.2  -0.2  -0.2  -0.2  -0.2  -0.2  -0.2  -0.2   0.0
   6    0.0  -0.2  -0.2  -0.2  -0.2  -0.2  -0.2  -0.2  -0.2  -0.2  -0.2  -0.2  -0.2  -0.2  -0.2  -0.2   0.0
   7    0.0  -0.2  -0.2  -0.2  -0.2  -0.2  -0.2  -0.2  -0.2  -0.2  -0.2  -0.2  -0.2  -0.2  -0.2  -0.2   0.0
   8    0.0  -0.2  -0.2  -0.2  -0.2  -0.2  -0.2   0.0   0.0   0.0  -0.2  -0.2  -0.2  -0.2  -0.2  -0.2   0.0
   9    0.0  -0.2  -0.2  -0.2  -0.2  -0.2  -0.2   0.0   0.0   0.0  -0.2  -0.2  -0.2  -0.2  -0.2  -0.2   0.0
  10    0.0  -0.2  -0.2  -0.2  -0.2  -0.2  -0.2   0.0   0.0   0.0  -0.2  -0.2  -0.2  -0.2  -0.2  -0.2   0.0
  11    0.0  -0.2  -0.2  -0.2  -0.2  -0.2  -0.2  -0.2  -0.2  -0.2  -0.2  -0.2  -0.2  -0.2  -0.2  -0.2   0.0
  12    0.0  -0.2  -0.2  -0.2  -0.2  -0.2  -0.2  -0.2  -0.2  -0.2  -0.2  -0.2  -0.2  -0.2  -0.2  -0.2   0.0
  13    0.0  -0.2  -0.2  -0.2  -0.2  -0.2  -0.2  -0.2  -0.2  -0.2  -0.2  -0.2  -0.2  -0.2  -0.2  -0.2   0.0
  14    0.0  -0.2  -0.2  -0.2  -0.2  -0.2  -0.2  -0.2  -0.2  -0.2  -0.2  -0.2  -0.2  -0.2  -0.2  -0.2   0.0
  15    0.0  -0.2  -0.2  -0.2  -0.2  -0.2  -0.2  -0.2  -0.2  -0.2  -0.2  -0.2  -0.2  -0.2  -0.2  -0.2   0.0
  16    0.0  -0.2  -0.2  -0.2  -0.2  -0.2  -0.2  -0.2  -0.2  -0.2  -0.2  -0.2  -0.2  -0.2  -0.2  -0.2   0.0
  17    0.0   0.0   0.0   0.0   0.0   0.0   0.0   0.0   0.0   0.0   0.0   0.0   0.0   0.0   0.0   0.0   0.0

    HYD. COND. ALONG ROWS =   30.0000     FOR LAYER   3

 VERT HYD COND /THICKNESS =   3.00000     FOR LAYER   3



                   WETDRY PARAMETER FOR LAYER   3
 READING ON UNIT   10 WITH FORMAT: (10F13.0)           

         1     2     3     4     5     6     7     8     9    10    11    12    13    14    15    16    17
 .........................................................................................................
   1    0.0   0.0   0.0   0.0   0.0   0.0   0.0   0.0   0.0   0.0   0.0   0.0   0.0   0.0   0.0   0.0   0.0
   2    0.0  -0.2  -0.2  -0.2  -0.2  -0.2  -0.2  -0.2  -0.2  -0.2  -0.2  -0.2  -0.2  -0.2  -0.2  -0.2   0.0
   3    0.0  -0.2  -0.2  -0.2  -0.2  -0.2  -0.2  -0.2  -0.2  -0.2  -0.2  -0.2  -0.2  -0.2  -0.2  -0.2   0.0
   4    0.0  -0.2  -0.2  -0.2  -0.2  -0.2  -0.2  -0.2  -0.2  -0.2  -0.2  -0.2  -0.2  -0.2  -0.2  -0.2   0.0
   5    0.0  -0.2  -0.2  -0.2  -0.2  -0.2  -0.2  -0.2  -0.2  -0.2  -0.2  -0.2  -0.2  -0.2  -0.2  -0.2   0.0
   6    0.0  -0.2  -0.2  -0.2  -0.2  -0.2  -0.2  -0.2  -0.2  -0.2  -0.2  -0.2  -0.2  -0.2  -0.2  -0.2   0.0
   7    0.0  -0.2  -0.2  -0.2  -0.2  -0.2  -0.2  -0.2  -0.2  -0.2  -0.2  -0.2  -0.2  -0.2  -0.2  -0.2   0.0
   8    0.0  -0.2  -0.2  -0.2  -0.2  -0.2  -0.2  -0.2  -0.2  -0.2  -0.2  -0.2  -0.2  -0.2  -0.2  -0.2   0.0
   9    0.0  -0.2  -0.2  -0.2  -0.2  -0.2  -0.2  -0.2  -0.2  -0.2  -0.2  -0.2  -0.2  -0.2  -0.2  -0.2   0.0
  10    0.0  -0.2  -0.2  -0.2  -0.2  -0.2  -0.2  -0.2  -0.2  -0.2  -0.2  -0.2  -0.2  -0.2  -0.2  -0.2   0.0
  11    0.0  -0.2  -0.2  -0.2  -0.2  -0.2  -0.2  -0.2  -0.2  -0.2  -0.2  -0.2  -0.2  -0.2  -0.2  -0.2   0.0
  12    0.0  -0.2  -0.2  -0.2  -0.2  -0.2  -0.2  -0.2  -0.2  -0.2  -0.2  -0.2  -0.2  -0.2  -0.2  -0.2   0.0
  13    0.0  -0.2  -0.2  -0.2  -0.2  -0.2  -0.2  -0.2  -0.2  -0.2  -0.2  -0.2  -0.2  -0.2  -0.2  -0.2   0.0
  14    0.0  -0.2  -0.2  -0.2  -0.2  -0.2  -0.2  -0.2  -0.2  -0.2  -0.2  -0.2  -0.2  -0.2  -0.2  -0.2   0.0
  15    0.0  -0.2  -0.2  -0.2  -0.2  -0.2  -0.2  -0.2  -0.2  -0.2  -0.2  -0.2  -0.2  -0.2  -0.2  -0.2   0.0
  16    0.0  -0.2  -0.2  -0.2  -0.2  -0.2  -0.2  -0.2  -0.2  -0.2  -0.2  -0.2  -0.2  -0.2  -0.2  -0.2   0.0
  17    0.0   0.0   0.0   0.0   0.0   0.0   0.0   0.0   0.0   0.0   0.0   0.0   0.0   0.0   0.0   0.0   0.0

    HYD. COND. ALONG ROWS =   30.0000     FOR LAYER   4

 VERT HYD COND /THICKNESS =   3.00000     FOR LAYER   4



                   WETDRY PARAMETER FOR LAYER   4
 READING ON UNIT   10 WITH FORMAT: (10F13.0)           

         1     2     3     4     5     6     7     8     9    10    11    12    13    14    15    16    17
 .........................................................................................................
   1    0.0   0.0   0.0   0.0   0.0   0.0   0.0   0.0   0.0   0.0   0.0   0.0   0.0   0.0   0.0   0.0   0.0
   2    0.0  -0.2  -0.2  -0.2  -0.2  -0.2  -0.2  -0.2  -0.2  -0.2  -0.2  -0.2  -0.2  -0.2  -0.2  -0.2   0.0
   3    0.0  -0.2  -0.2  -0.2  -0.2  -0.2  -0.2  -0.2  -0.2  -0.2  -0.2  -0.2  -0.2  -0.2  -0.2  -0.2   0.0
   4    0.0  -0.2  -0.2  -0.2  -0.2  -0.2  -0.2  -0.2  -0.2  -0.2  -0.2  -0.2  -0.2  -0.2  -0.2  -0.2   0.0
   5    0.0  -0.2  -0.2  -0.2  -0.2  -0.2  -0.2  -0.2  -0.2  -0.2  -0.2  -0.2  -0.2  -0.2  -0.2  -0.2   0.0
   6    0.0  -0.2  -0.2  -0.2  -0.2  -0.2  -0.2  -0.2  -0.2  -0.2  -0.2  -0.2  -0.2  -0.2  -0.2  -0.2   0.0
   7    0.0  -0.2  -0.2  -0.2  -0.2  -0.2  -0.2  -0.2  -0.2  -0.2  -0.2  -0.2  -0.2  -0.2  -0.2  -0.2   0.0
   8    0.0  -0.2  -0.2  -0.2  -0.2  -0.2  -0.2  -0.2  -0.2  -0.2  -0.2  -0.2  -0.2  -0.2  -0.2  -0.2   0.0
   9    0.0  -0.2  -0.2  -0.2  -0.2  -0.2  -0.2  -0.2  -0.2  -0.2  -0.2  -0.2  -0.2  -0.2  -0.2  -0.2   0.0
  10    0.0  -0.2  -0.2  -0.2  -0.2  -0.2  -0.2  -0.2  -0.2  -0.2  -0.2  -0.2  -0.2  -0.2  -0.2  -0.2   0.0
  11    0.0  -0.2  -0.2  -0.2  -0.2  -0.2  -0.2  -0.2  -0.2  -0.2  -0.2  -0.2  -0.2  -0.2  -0.2  -0.2   0.0
  12    0.0  -0.2  -0.2  -0.2  -0.2  -0.2  -0.2  -0.2  -0.2  -0.2  -0.2  -0.2  -0.2  -0.2  -0.2  -0.2   0.0
  13    0.0  -0.2  -0.2  -0.2  -0.2  -0.2  -0.2  -0.2  -0.2  -0.2  -0.2  -0.2  -0.2  -0.2  -0.2  -0.2   0.0
  14    0.0  -0.2  -0.2  -0.2  -0.2  -0.2  -0.2  -0.2  -0.2  -0.2  -0.2  -0.2  -0.2  -0.2  -0.2  -0.2   0.0
  15    0.0  -0.2  -0.2  -0.2  -0.2  -0.2  -0.2  -0.2  -0.2  -0.2  -0.2  -0.2  -0.2  -0.2  -0.2  -0.2   0.0
  16    0.0  -0.2  -0.2  -0.2  -0.2  -0.2  -0.2  -0.2  -0.2  -0.2  -0.2  -0.2  -0.2  -0.2  -0.2  -0.2   0.0
  17    0.0   0.0   0.0   0.0   0.0   0.0   0.0   0.0   0.0   0.0   0.0   0.0   0.0   0.0   0.0   0.0   0.0

    HYD. COND. ALONG ROWS =   30.0000     FOR LAYER   5



                   WETDRY PARAMETER FOR LAYER   5
 READING ON UNIT   10 WITH FORMAT: (10F13.0)           

         1     2     3     4     5     6     7     8     9    10    11    12    13    14    15    16    17
 .........................................................................................................
   1    0.0   0.0   0.0   0.0   0.0   0.0   0.0   0.0   0.0   0.0   0.0   0.0   0.0   0.0   0.0   0.0   0.0
   2    0.0  -0.2  -0.2  -0.2  -0.2  -0.2  -0.2  -0.2  -0.2  -0.2  -0.2  -0.2  -0.2  -0.2  -0.2  -0.2   0.0
   3    0.0  -0.2  -0.2  -0.2  -0.2  -0.2  -0.2  -0.2  -0.2  -0.2  -0.2  -0.2  -0.2  -0.2  -0.2  -0.2   0.0
   4    0.0  -0.2  -0.2  -0.2  -0.2  -0.2  -0.2  -0.2  -0.2  -0.2  -0.2  -0.2  -0.2  -0.2  -0.2  -0.2   0.0
   5    0.0  -0.2  -0.2  -0.2  -0.2  -0.2  -0.2  -0.2  -0.2  -0.2  -0.2  -0.2  -0.2  -0.2  -0.2  -0.2   0.0
   6    0.0  -0.2  -0.2  -0.2  -0.2  -0.2  -0.2  -0.2  -0.2  -0.2  -0.2  -0.2  -0.2  -0.2  -0.2  -0.2   0.0
   7    0.0  -0.2  -0.2  -0.2  -0.2  -0.2  -0.2  -0.2  -0.2  -0.2  -0.2  -0.2  -0.2  -0.2  -0.2  -0.2   0.0
   8    0.0  -0.2  -0.2  -0.2  -0.2  -0.2  -0.2  -0.2  -0.2  -0.2  -0.2  -0.2  -0.2  -0.2  -0.2  -0.2   0.0
   9    0.0  -0.2  -0.2  -0.2  -0.2  -0.2  -0.2  -0.2  -0.2  -0.2  -0.2  -0.2  -0.2  -0.2  -0.2  -0.2   0.0
  10    0.0  -0.2  -0.2  -0.2  -0.2  -0.2  -0.2  -0.2  -0.2  -0.2  -0.2  -0.2  -0.2  -0.2  -0.2  -0.2   0.0
  11    0.0  -0.2  -0.2  -0.2  -0.2  -0.2  -0.2  -0.2  -0.2  -0.2  -0.2  -0.2  -0.2  -0.2  -0.2  -0.2   0.0
  12    0.0  -0.2  -0.2  -0.2  -0.2  -0.2  -0.2  -0.2  -0.2  -0.2  -0.2  -0.2  -0.2  -0.2  -0.2  -0.2   0.0
  13    0.0  -0.2  -0.2  -0.2  -0.2  -0.2  -0.2  -0.2  -0.2  -0.2  -0.2  -0.2  -0.2  -0.2  -0.2  -0.2   0.0
  14    0.0  -0.2  -0.2  -0.2  -0.2  -0.2  -0.2  -0.2  -0.2  -0.2  -0.2  -0.2  -0.2  -0.2  -0.2  -0.2   0.0
  15    0.0  -0.2  -0.2  -0.2  -0.2  -0.2  -0.2  -0.2  -0.2  -0.2  -0.2  -0.2  -0.2  -0.2  -0.2  -0.2   0.0
  16    0.0  -0.2  -0.2  -0.2  -0.2  -0.2  -0.2  -0.2  -0.2  -0.2  -0.2  -0.2  -0.2  -0.2  -0.2  -0.2   0.0
  17    0.0   0.0   0.0   0.0   0.0   0.0   0.0   0.0   0.0   0.0   0.0   0.0   0.0   0.0   0.0   0.0   0.0

 EVT -- EVAPOTRANSPIRATION PACKAGE, VERSION OWHM,
         INPUT READ FROM UNIT   11

-- READING EVT PACKAGE INPUT --

# l1b2k
# MODFLOW-2005 Example problem documented in:
#   Harbaugh, A.W., 2005, MODFLOW-2005, the U.S. Geological Survey modular ground-water model -- the Ground-Water Flow Process: U.S. Geological Survey Techniques and Methods 6-A16.
#   Harbaugh, A.W., Banta, E.R., Hill, M.C. and McDonald, M.G., 2000, MODFLOW-2000, The U.S. Geological Survey Modular Ground-Water Model - User Guide to Modularization Concepts and the Ground-Water Flow Process: U.S Geological Survey Open-File Report 2000-92, 121 p., https://doi.org/10.3133/ofr200092
#   Merritt, M.L., and Konikow, L.F., 2000, Documentation of a Computer Program to Simulate Lake-Aquifer Interaction Using the MODFLOW Ground-Water Flow Model and the MOC3D Solute-Transport Model: U.S. Geological Survey Water-Resources Investigations Report 00-4167, 146 p.
#
#-----------------------------------------------------------------------------------------------------------------------------------------------------

 No named parameters
 OPTION 3 -- EVAPOTRANSPIRATION FROM HIGHEST ACTIVE NODE IN EACH VERTICAL COLUMN


     0 Evapotranspiration parameters

 RCH -- RECHARGE PACKAGE, VERSION OWHM INPUT READ FROM UNIT   12

-- READING RCH PACKAGE INPUT --

# l1b2k
# MODFLOW-2005 Example problem documented in:
#   Harbaugh, A.W., 2005, MODFLOW-2005, the U.S. Geological Survey modular ground-water model -- the Ground-Water Flow Process: U.S. Geological Survey Techniques and Methods 6-A16.
#   Harbaugh, A.W., Banta, E.R., Hill, M.C. and McDonald, M.G., 2000, MODFLOW-2000, The U.S. Geological Survey Modular Ground-Water Model - User Guide to Modularization Concepts and the Ground-Water Flow Process: U.S Geological Survey Open-File Report 2000
#   Merritt, M.L., and Konikow, L.F., 2000, Documentation of a Computer Program to Simulate Lake-Aquifer Interaction Using the MODFLOW Ground-Water Flow Model and the MOC3D Solute-Transport Model: U.S. Geological Survey Water-Resources Investigations Repor
#
#-----------------------------------------------------------------------------------------------------------------------------------------------------

 No named parameters
 OPTION 3 -- RECHARGE TO HIGHEST ACTIVE NODE IN EACH VERTICAL COLUMN


     0 Recharge parameters

 FHB1 -- SPECIFIED FLOW PACKAGE, VERSION OWHM INPUT READ FROM 21
  SPECIFIED FLOW AND HEAD VALUES WILL REMAIN CONSTANT FOR ENTIRE SIMULATION.
 FLOW WILL BE SPECIFIED AT A TOTAL OF    0 CELLS.
 HEAD WILL BE SPECIFIED AT A TOTAL OF  320 CELLS.
 FLOW, HEAD, AND AUX VARIABLES AT TIME=0 WILL BE 
 USED IN STEADY-STATE SIMULATIONS.
  0 AUXILIARY VARIABLES FOR SPECIFIED-FLOW CELLS WILL
  BE DEFINED BY FHB FOR USE BY OTHER PACKAGES.
  0 AUXILIARY VARIABLES FOR SPECIFIED-HEAD CELLS WILL
  BE DEFINED BY FHB FOR USE BY OTHER PACKAGES.
 TIMES FOR SPECIFIED-FLOW AND HEAD VALUES WILL BE READ ON UNIT  21 AND
 MULTIPLIED BY   1.000    .
     1 TIMES FOR SPECIFYING FLOWS AND HEADS:
                       1
                 ------------
                    0.000    

 CELL INDICES AND SPECIFIED-HEAD VALUES WILL BE READ ON UNIT  21. HEAD VALUES
 WILL BE MULTIPLIED BY   1.000    .
 LAYER  ROW  COL IAUX             HEAD VALUES
 -------------------------------
    1    1    1   64   160.0    
    1    2    1   64   160.0    
    1    3    1   64   160.0    
    1    4    1   64   160.0    
    1    5    1   64   160.0    
    1    6    1   64   160.0    
    1    7    1   64   160.0    
    1    8    1   64   160.0    
    1    9    1   64   160.0    
    1   10    1   64   160.0    
    1   11    1   64   160.0    
    1   12    1   64   160.0    
    1   13    1   64   160.0    
    1   14    1   64   160.0    
    1   15    1   64   160.0    
    1   16    1   64   160.0    
    1   17    1   64   160.0    
    1    1   17   64   140.0    
    1    2   17   64   140.0    
    1    3   17   64   140.0    
    1    4   17   64   140.0    
    1    5   17   64   140.0    
    1    6   17   64   140.0    
    1    7   17   64   140.0    
    1    8   17   64   140.0    
    1    9   17   64   140.0    
    1   10   17   64   140.0    
    1   11   17   64   140.0    
    1   12   17   64   140.0    
    1   13   17   64   140.0    
    1   14   17   64   140.0    
    1   15   17   64   140.0    
    1   16   17   64   140.0    
    1   17   17   64   140.0    
    2    1    1   64   160.0    
    2    2    1   64   160.0    
    2    3    1   64   160.0    
    2    4    1   64   160.0    
    2    5    1   64   160.0    
    2    6    1   64   160.0    
    2    7    1   64   160.0    
    2    8    1   64   160.0    
    2    9    1   64   160.0    
    2   10    1   64   160.0    
    2   11    1   64   160.0    
    2   12    1   64   160.0    
    2   13    1   64   160.0    
    2   14    1   64   160.0    
    2   15    1   64   160.0    
    2   16    1   64   160.0    
    2   17    1   64   160.0    
    2    1   17   64   140.0    
    2    2   17   64   140.0    
    2    3   17   64   140.0    
    2    4   17   64   140.0    
    2    5   17   64   140.0    
    2    6   17   64   140.0    
    2    7   17   64   140.0    
    2    8   17   64   140.0    
    2    9   17   64   140.0    
    2   10   17   64   140.0    
    2   11   17   64   140.0    
    2   12   17   64   140.0    
    2   13   17   64   140.0    
    2   14   17   64   140.0    
    2   15   17   64   140.0    
    2   16   17   64   140.0    
    2   17   17   64   140.0    
    3    1    1   64   160.0    
    3    2    1   64   160.0    
    3    3    1   64   160.0    
    3    4    1   64   160.0    
    3    5    1   64   160.0    
    3    6    1   64   160.0    
    3    7    1   64   160.0    
    3    8    1   64   160.0    
    3    9    1   64   160.0    
    3   10    1   64   160.0    
    3   11    1   64   160.0    
    3   12    1   64   160.0    
    3   13    1   64   160.0    
    3   14    1   64   160.0    
    3   15    1   64   160.0    
    3   16    1   64   160.0    
    3   17    1   64   160.0    
    3    1   17   64   140.0    
    3    2   17   64   140.0    
    3    3   17   64   140.0    
    3    4   17   64   140.0    
    3    5   17   64   140.0    
    3    6   17   64   140.0    
    3    7   17   64   140.0    
    3    8   17   64   140.0    
    3    9   17   64   140.0    
    3   10   17   64   140.0    
    3   11   17   64   140.0    
    3   12   17   64   140.0    
    3   13   17   64   140.0    
    3   14   17   64   140.0    
    3   15   17   64   140.0    
    3   16   17   64   140.0    
    3   17   17   64   140.0    
    4    1    1   64   160.0    
    4    2    1   64   160.0    
    4    3    1   64   160.0    
    4    4    1   64   160.0    
    4    5    1   64   160.0    
    4    6    1   64   160.0    
    4    7    1   64   160.0    
    4    8    1   64   160.0    
    4    9    1   64   160.0    
    4   10    1   64   160.0    
    4   11    1   64   160.0    
    4   12    1   64   160.0    
    4   13    1   64   160.0    
    4   14    1   64   160.0    
    4   15    1   64   160.0    
    4   16    1   64   160.0    
    4   17    1   64   160.0    
    4    1   17   64   140.0    
    4    2   17   64   140.0    
    4    3   17   64   140.0    
    4    4   17   64   140.0    
    4    5   17   64   140.0    
    4    6   17   64   140.0    
    4    7   17   64   140.0    
    4    8   17   64   140.0    
    4    9   17   64   140.0    
    4   10   17   64   140.0    
    4   11   17   64   140.0    
    4   12   17   64   140.0    
    4   13   17   64   140.0    
    4   14   17   64   140.0    
    4   15   17   64   140.0    
    4   16   17   64   140.0    
    4   17   17   64   140.0    
    5    1    1   64   160.0    
    5    2    1   64   160.0    
    5    3    1   64   160.0    
    5    4    1   64   160.0    
    5    5    1   64   160.0    
    5    6    1   64   160.0    
    5    7    1   64   160.0    
    5    8    1   64   160.0    
    5    9    1   64   160.0    
    5   10    1   64   160.0    
    5   11    1   64   160.0    
    5   12    1   64   160.0    
    5   13    1   64   160.0    
    5   14    1   64   160.0    
    5   15    1   64   160.0    
    5   16    1   64   160.0    
    5   17    1   64   160.0    
    5    1   17   64   140.0    
    5    2   17   64   140.0    
    5    3   17   64   140.0    
    5    4   17   64   140.0    
    5    5   17   64   140.0    
    5    6   17   64   140.0    
    5    7   17   64   140.0    
    5    8   17   64   140.0    
    5    9   17   64   140.0    
    5   10   17   64   140.0    
    5   11   17   64   140.0    
    5   12   17   64   140.0    
    5   13   17   64   140.0    
    5   14   17   64   140.0    
    5   15   17   64   140.0    
    5   16   17   64   140.0    
    5   17   17   64   140.0    
    1    1    2   64   158.8    
    1    1    3   64   157.3    
    1    1    4   64   155.8    
    1    1    5   64   154.2    
    1    1    6   64   152.7    
    1    1    7   64   151.5    
    1    1    8   64   150.8    
    1    1    9   64   150.0    
    1    1   10   64   149.2    
    1    1   11   64   148.5    
    1    1   12   64   147.3    
    1    1   13   64   145.8    
    1    1   14   64   144.2    
    1    1   15   64   142.7    
    1    1   16   64   141.2    
    1   17    2   64   158.8    
    1   17    3   64   157.3    
    1   17    4   64   155.8    
    1   17    5   64   154.2    
    1   17    6   64   152.7    
    1   17    7   64   151.5    
    1   17    8   64   150.8    
    1   17    9   64   150.0    
    1   17   10   64   149.2    
    1   17   11   64   148.5    
    1   17   12   64   147.3    
    1   17   13   64   145.8    
    1   17   14   64   144.2    
    1   17   15   64   142.7    
    1   17   16   64   141.2    
    2    1    2   64   158.8    
    2    1    3   64   157.3    
    2    1    4   64   155.8    
    2    1    5   64   154.2    
    2    1    6   64   152.7    
    2    1    7   64   151.5    
    2    1    8   64   150.8    
    2    1    9   64   150.0    
    2    1   10   64   149.2    
    2    1   11   64   148.5    
    2    1   12   64   147.3    
    2    1   13   64   145.8    
    2    1   14   64   144.2    
    2    1   15   64   142.7    
    2    1   16   64   141.2    
    2   17    2   64   158.8    
    2   17    3   64   157.3    
    2   17    4   64   155.8    
    2   17    5   64   154.2    
    2   17    6   64   152.7    
    2   17    7   64   151.5    
    2   17    8   64   150.8    
    2   17    9   64   150.0    
    2   17   10   64   149.2    
    2   17   11   64   148.5    
    2   17   12   64   147.3    
    2   17   13   64   145.8    
    2   17   14   64   144.2    
    2   17   15   64   142.7    
    2   17   16   64   141.2    
    3    1    2   64   158.8    
    3    1    3   64   157.3    
    3    1    4   64   155.8    
    3    1    5   64   154.2    
    3    1    6   64   152.7    
    3    1    7   64   151.5    
    3    1    8   64   150.8    
    3    1    9   64   150.0    
    3    1   10   64   149.2    
    3    1   11   64   148.5    
    3    1   12   64   147.3    
    3    1   13   64   145.8    
    3    1   14   64   144.2    
    3    1   15   64   142.7    
    3    1   16   64   141.2    
    3   17    2   64   158.8    
    3   17    3   64   157.3    
    3   17    4   64   155.8    
    3   17    5   64   154.2    
    3   17    6   64   152.7    
    3   17    7   64   151.5    
    3   17    8   64   150.8    
    3   17    9   64   150.0    
    3   17   10   64   149.2    
    3   17   11   64   148.5    
    3   17   12   64   147.3    
    3   17   13   64   145.8    
    3   17   14   64   144.2    
    3   17   15   64   142.7    
    3   17   16   64   141.2    
    4    1    2   64   158.8    
    4    1    3   64   157.3    
    4    1    4   64   155.8    
    4    1    5   64   154.2    
    4    1    6   64   152.7    
    4    1    7   64   151.5    
    4    1    8   64   150.8    
    4    1    9   64   150.0    
    4    1   10   64   149.2    
    4    1   11   64   148.5    
    4    1   12   64   147.3    
    4    1   13   64   145.8    
    4    1   14   64   144.2    
    4    1   15   64   142.7    
    4    1   16   64   141.2    
    4   17    2   64   158.8    
    4   17    3   64   157.3    
    4   17    4   64   155.8    
    4   17    5   64   154.2    
    4   17    6   64   152.7    
    4   17    7   64   151.5    
    4   17    8   64   150.8    
    4   17    9   64   150.0    
    4   17   10   64   149.2    
    4   17   11   64   148.5    
    4   17   12   64   147.3    
    4   17   13   64   145.8    
    4   17   14   64   144.2    
    4   17   15   64   142.7    
    4   17   16   64   141.2    
    5    1    2   64   158.8    
    5    1    3   64   157.3    
    5    1    4   64   155.8    
    5    1    5   64   154.2    
    5    1    6   64   152.7    
    5    1    7   64   151.5    
    5    1    8   64   150.8    
    5    1    9   64   150.0    
    5    1   10   64   149.2    
    5    1   11   64   148.5    
    5    1   12   64   147.3    
    5    1   13   64   145.8    
    5    1   14   64   144.2    
    5    1   15   64   142.7    
    5    1   16   64   141.2    
    5   17    2   64   158.8    
    5   17    3   64   157.3    
    5   17    4   64   155.8    
    5   17    5   64   154.2    
    5   17    6   64   152.7    
    5   17    7   64   151.5    
    5   17    8   64   150.8    
    5   17    9   64   150.0    
    5   17   10   64   149.2    
    5   17   11   64   148.5    
    5   17   12   64   147.3    
    5   17   13   64   145.8    
    5   17   14   64   144.2    
    5   17   15   64   142.7    
    5   17   16   64   141.2    

 LAK7 -- LAKE PACKAGE, VERSION OWHM INPUT READ FROM UNIT 16

-- READING LAK PACKAGE INPUT --

# l1b2k
# MODFLOW-2005 Example problem documented in:
#   Harbaugh, A.W., 2005, MODFLOW-2005, the U.S. Geological Survey modular ground-water model -- the Ground-Water Flow Process: U.S. Geological Survey Techniques and Methods 6-A16.
#   Harbaugh, A.W., Banta, E.R., Hill, M.C. and McDonald, M.G., 2000, MODFLOW-2000, The U.S. Geological Survey Modular Ground-Water Model - User Guide to Modularization Concepts and the Ground-Water Flow Process: U.S Geological Survey Open-File Report 2000-92, 121 p., https://doi.org/10.3133/ofr200092
#   Merritt, M.L., and Konikow, L.F., 2000, Documentation of a Computer Program to Simulate Lake-Aquifer Interaction Using the MODFLOW Ground-Water Flow Model and the MOC3D Solute-Transport Model: U.S. Geological Survey Water-Resources Investigations Report 00-4167, 146 p.
#
#-----------------------------------------------------------------------------------------------------------------------------------------------------

 No named parameters
 Model grid will be used to develop 
 volume and area relationship. 
 SPACE ALLOCATION FOR    722 GRID CELL FACES ADJACENT TOLAKES
 MAXIMUM NUMBER OF LAKES IS  1 FOR THIS SIMULATION
 CELL-BY-CELL SEEPAGES WILL NOT BE PRINTED OR SAVED


 NEWTON ITERATION METHOD FOR COMPUTING LAKE STAGE DURING STEADY-STATE STRESS PERIODS HAS BEEN MODIFIED:
 SPECIFIED THETA OF  0.000 WILL BE AUTOMATICALLY CHANGED TO 1.0 FOR ALL STEADY STATE STRESS PERIODS.
 MAXIMUM NUMBER OF STEADY-STATE ITERATIONS (NSSITR) =    50
 CLOSURE CRITERIA FOR STEADY-STATE LAKE STAGE (SSCNCR) =  1.000000E-03



 SIP -- STRONGLY-IMPLICIT PROCEDURE SOLUTION PACKAGE
                    VERSION OWHM INPUT READ FROM UNIT   13

-- READING SIP PACKAGE INPUT --

# l1b2k
# MODFLOW-2005 Example problem documented in:
#   Harbaugh, A.W., 2005, MODFLOW-2005, the U.S. Geological Survey modular ground-water model -- the Ground-Water Flow Process: U.S. Geological Survey Techniques and Methods 6-A16.
#   Harbaugh, A.W., Banta, E.R., Hill, M.C. and McDonald, M.G., 2000, MODFLOW-2000, The U.S. Geological Survey Modular Ground-Water Model - User Guide to Modularization Concepts and the Ground-Water Flow Process: U.S Geological Survey Open-File Report 2000-92, 121 p., https://doi.org/10.3133/ofr200092
#   Merritt, M.L., and Konikow, L.F., 2000, Documentation of a Computer Program to Simulate Lake-Aquifer Interaction Using the MODFLOW Ground-Water Flow Model and the MOC3D Solute-Transport Model: U.S. Geological Survey Water-Resources Investigations Report 00-4167, 146 p.
#
#-----------------------------------------------------------------------------------------------------------------------------------------------------

 MAXIMUM OF 500 ITERATIONS ALLOWED FOR CLOSURE
  5 ITERATION PARAMETERS

          SOLUTION BY THE STRONGLY IMPLICIT PROCEDURE
          -------------------------------------------
 MAXIMUM ITERATIONS ALLOWED FOR CLOSURE =      500
                 ACCELERATION PARAMETER =     1.0000    
      HEAD CHANGE CRITERION FOR CLOSURE =    0.10000E-03
      SIP HEAD CHANGE PRINTOUT INTERVAL =        1

     CALCULATE ITERATION PARAMETERS FROM MODEL CALCULATED WSEED


########################################################################################################

                           WARNING_MESSAGE

         THE FOLLOWING COMMENTS WERE PASSED TO THE WARNING ROUTINE

THE DESRIPTION OF THE WARNING IS:

DIS PACKAGE: THE GROUND SURFACE ELEVATION WAS NOT SPECIFIED WITH THE KEYWORD "SURFACE_ELEVATION"

BEFORE LOADING THE "TOP" ARRAY FOR LAYER 1
NOR WAS IT DEFINED WITH ANOTHER PACKAGE   (e.g. FMPs GLOBAL DIMENSION KEYWORD "SURFACE_ELEVATION")

OneWater WILL SET THE GROUND SURFACE ELEVATION (GSE)
TO THE TOP ELEVATION OF THE UPPER MOST ACTIVE CELL OR THE DIS TOP OF LAY1.

NOTE THAT SFR DOES USE GSE FOR ALL DIVERSION SEGMENTS
   WHEN "IRDFLG" IS SET TO 2 or -2.

########################################################################################################



1
                            STRESS PERIOD NO.      1, LENGTH =   1.000000    
                            -----------------------------------------------

                              NUMBER OF TIME STEPS =     1

                               MULTIPLIER FOR DELT =     1.000

                            INITIAL TIME STEP SIZE =   1.000000    

PARAMETERS HAVE BEEN USED IN PACKAGES

THE CURRENT STORAGE FOR PARAMETERS IS: 
No. PARAMETER=         0 WITH MAX STORAGE (MXPAR)  OF      2000
No. CLUSTERS =         0 WITH MAX STORAGE (MXCLST) OF   2000000
No. INSTANCES=         0 WITH MAX STORAGE (MXINST) OF     50000

YOU CAN INCREASE/DECREASE STORAGE WITH BAS OPTION:
MAXPARAM  MXPAR  MXCLST MXINST

FYI, YOU CAN REDUCE RAM USUAGE WITH BAS OPTION
(NOTE THE THREE NUMBERS ARE A MINUMUM SIZE):
   MAXPARAM          1         1         1




                         ET SURFACE
 READING ON UNIT   11 WITH FORMAT: (19F6.1)            

         1     2     3     4     5     6     7     8     9    10    11    12    13    14    15    16    17
 .........................................................................................................
   1  160.0 159.0 157.4 155.9 154.3 152.7 151.6 150.8 150.0 149.2 148.4 147.3 145.7 144.1 142.6 141.0 140.0
   2  160.0 159.0 157.4 155.9 154.3 152.7 151.6 150.8 150.0 149.2 148.4 147.3 145.7 144.1 142.6 141.0 140.0
   3  160.0 159.0 157.4 155.9 154.3 152.7 151.6 150.8 150.0 149.2 148.4 147.3 145.7 144.1 142.6 141.0 140.0
   4  160.0 159.0 157.4 155.9 154.3 152.7 151.6 150.8 150.0 149.2 148.4 147.3 145.7 144.1 142.6 141.0 140.0
   5  160.0 159.0 157.4 155.9 154.3 152.7 151.6 150.8 150.0 149.2 148.4 147.3 145.7 144.1 142.6 141.0 140.0
   6  160.0 159.0 157.4 155.9 154.3 152.7 151.6 150.8 150.0 149.2 148.4 147.3 145.7 144.1 142.6 141.0 140.0
   7  160.0 159.0 157.4 155.9 154.3 152.7 105.0 105.0 105.0 105.0 105.0 147.3 145.7 144.1 142.6 141.0 140.0
   8  160.0 159.0 157.4 155.9 154.3 152.7 105.0  95.0  95.0  95.0 105.0 147.3 145.7 144.1 142.6 141.0 140.0
   9  160.0 159.0 157.4 155.9 154.3 152.7 105.0  95.0  95.0  95.0 105.0 147.3 145.7 144.1 142.6 141.0 140.0
  10  160.0 159.0 157.4 155.9 154.3 152.7 105.0  95.0  95.0  95.0 105.0 147.3 145.7 144.1 142.6 141.0 140.0
  11  160.0 159.0 157.4 155.9 154.3 152.7 105.0 105.0 105.0 105.0 105.0 147.3 145.7 144.1 142.6 141.0 140.0
  12  160.0 159.0 157.4 155.9 154.3 152.7 151.6 150.8 150.0 149.2 148.4 147.3 145.7 144.1 142.6 141.0 140.0
  13  160.0 159.0 157.4 155.9 154.3 152.7 151.6 150.8 150.0 149.2 148.4 147.3 145.7 144.1 142.6 141.0 140.0
  14  160.0 159.0 157.4 155.9 154.3 152.7 151.6 150.8 150.0 149.2 148.4 147.3 145.7 144.1 142.6 141.0 140.0
  15  160.0 159.0 157.4 155.9 154.3 152.7 151.6 150.8 150.0 149.2 148.4 147.3 145.7 144.1 142.6 141.0 140.0
  16  160.0 159.0 157.4 155.9 154.3 152.7 151.6 150.8 150.0 149.2 148.4 147.3 145.7 144.1 142.6 141.0 140.0
  17  160.0 159.0 157.4 155.9 154.3 152.7 151.6 150.8 150.0 149.2 148.4 147.3 145.7 144.1 142.6 141.0 140.0

  EVAPOTRANSPIRATION RATE =  1.410000E-02

         EXTINCTION DEPTH =   15.0000    

                 RECHARGE =  1.160000E-02


 LAKE PACKAGE ACTIVE:  CALCULATED LAKE STAGE FOR EACH TIME STEP WILL BE STORED IN HNEW ARRAY.



 INITIAL LAKE STAGE:  LAKE    STAGE    SS MIN    SS MAX

                        1   110.000   100.000   170.000




 If any subsequent steady-state stress periods, min. and max. stages for each lake will be read in Record 9a.





                      LAKE ID ARRAY FOR LAYER   1
 READING ON UNIT   16 WITH FORMAT: (24I3)              

        1   2   3   4   5   6   7   8   9  10  11  12  13  14  15  16  17
 ........................................................................
   1    0   0   0   0   0   0   0   0   0   0   0   0   0   0   0   0   0
   2    0   0   0   0   0   0   0   0   0   0   0   0   0   0   0   0   0
   3    0   0   0   0   0   0   0   0   0   0   0   0   0   0   0   0   0
   4    0   0   0   0   0   0   0   0   0   0   0   0   0   0   0   0   0
   5    0   0   0   0   0   0   0   0   0   0   0   0   0   0   0   0   0
   6    0   0   0   0   0   0   0   0   0   0   0   0   0   0   0   0   0
   7    0   0   0   0   0   0   1   1   1   1   1   0   0   0   0   0   0
   8    0   0   0   0   0   0   1   1   1   1   1   0   0   0   0   0   0
   9    0   0   0   0   0   0   1   1   1   1   1   0   0   0   0   0   0
  10    0   0   0   0   0   0   1   1   1   1   1   0   0   0   0   0   0
  11    0   0   0   0   0   0   1   1   1   1   1   0   0   0   0   0   0
  12    0   0   0   0   0   0   0   0   0   0   0   0   0   0   0   0   0
  13    0   0   0   0   0   0   0   0   0   0   0   0   0   0   0   0   0
  14    0   0   0   0   0   0   0   0   0   0   0   0   0   0   0   0   0
  15    0   0   0   0   0   0   0   0   0   0   0   0   0   0   0   0   0
  16    0   0   0   0   0   0   0   0   0   0   0   0   0   0   0   0   0
  17    0   0   0   0   0   0   0   0   0   0   0   0   0   0   0   0   0



                      LAKE ID ARRAY FOR LAYER   2
 READING ON UNIT   16 WITH FORMAT: (24I3)              

        1   2   3   4   5   6   7   8   9  10  11  12  13  14  15  16  17
 ........................................................................
   1    0   0   0   0   0   0   0   0   0   0   0   0   0   0   0   0   0
   2    0   0   0   0   0   0   0   0   0   0   0   0   0   0   0   0   0
   3    0   0   0   0   0   0   0   0   0   0   0   0   0   0   0   0   0
   4    0   0   0   0   0   0   0   0   0   0   0   0   0   0   0   0   0
   5    0   0   0   0   0   0   0   0   0   0   0   0   0   0   0   0   0
   6    0   0   0   0   0   0   0   0   0   0   0   0   0   0   0   0   0
   7    0   0   0   0   0   0   0   0   0   0   0   0   0   0   0   0   0
   8    0   0   0   0   0   0   0   1   1   1   0   0   0   0   0   0   0
   9    0   0   0   0   0   0   0   1   1   1   0   0   0   0   0   0   0
  10    0   0   0   0   0   0   0   1   1   1   0   0   0   0   0   0   0
  11    0   0   0   0   0   0   0   0   0   0   0   0   0   0   0   0   0
  12    0   0   0   0   0   0   0   0   0   0   0   0   0   0   0   0   0
  13    0   0   0   0   0   0   0   0   0   0   0   0   0   0   0   0   0
  14    0   0   0   0   0   0   0   0   0   0   0   0   0   0   0   0   0
  15    0   0   0   0   0   0   0   0   0   0   0   0   0   0   0   0   0
  16    0   0   0   0   0   0   0   0   0   0   0   0   0   0   0   0   0
  17    0   0   0   0   0   0   0   0   0   0   0   0   0   0   0   0   0

            LAKE ID ARRAY =              0 FOR LAYER   3

            LAKE ID ARRAY =              0 FOR LAYER   4

            LAKE ID ARRAY =              0 FOR LAYER   5





   LAKEBED LEAKANCE ARRAY =  0.100000     FOR LAYER   1

   LAKEBED LEAKANCE ARRAY =  0.100000     FOR LAYER   2

   LAKEBED LEAKANCE ARRAY =  0.100000     FOR LAYER   3

   LAKEBED LEAKANCE ARRAY =  0.100000     FOR LAYER   4

   LAKEBED LEAKANCE ARRAY =  0.100000     FOR LAYER   5

       LOCATIONS, LAKE #, INTERFACE TYPE FOR GRID CELLS ADJACENT TO LAKES:
     -----------------------------------------------------------------------
     LAYER #    ROW #    COLUMN #   LAKE #  INTERFACE TYPE  LAKEBED LEAKANCE
         1         7         6         1         2             1.000E-01
         1         8         6         1         2             1.000E-01
         1         9         6         1         2             1.000E-01
         1        10         6         1         2             1.000E-01
         1        11         6         1         2             1.000E-01
         1         6         7         1         3             1.000E-01
         2         7         7         1         6             1.000E-01
         2         8         7         1         6             1.000E-01
         2         8         7         1         2             1.000E-01
         2         9         7         1         6             1.000E-01
         2         9         7         1         2             1.000E-01
         2        10         7         1         6             1.000E-01
         2        10         7         1         2             1.000E-01
         2        11         7         1         6             1.000E-01
         1        12         7         1         4             1.000E-01
         1         6         8         1         3             1.000E-01
         2         7         8         1         6             1.000E-01
         2         7         8         1         3             1.000E-01
         3         8         8         1         6             1.000E-01
         3         9         8         1         6             1.000E-01
         3        10         8         1         6             1.000E-01
         2        11         8         1         6             1.000E-01
         2        11         8         1         4             1.000E-01
         1        12         8         1         4             1.000E-01
         1         6         9         1         3             1.000E-01
         2         7         9         1         6             1.000E-01
         2         7         9         1         3             1.000E-01
         3         8         9         1         6             1.000E-01
         3         9         9         1         6             1.000E-01
         3        10         9         1         6             1.000E-01
         2        11         9         1         6             1.000E-01
         2        11         9         1         4             1.000E-01
         1        12         9         1         4             1.000E-01
         1         6        10         1         3             1.000E-01
         2         7        10         1         6             1.000E-01
         2         7        10         1         3             1.000E-01
         3         8        10         1         6             1.000E-01
         3         9        10         1         6             1.000E-01
         3        10        10         1         6             1.000E-01
         2        11        10         1         6             1.000E-01
         2        11        10         1         4             1.000E-01
         1        12        10         1         4             1.000E-01
         1         6        11         1         3             1.000E-01
         2         7        11         1         6             1.000E-01
         2         8        11         1         6             1.000E-01
         2         8        11         1         1             1.000E-01
         2         9        11         1         6             1.000E-01
         2         9        11         1         1             1.000E-01
         2        10        11         1         6             1.000E-01
         2        10        11         1         1             1.000E-01
         2        11        11         1         6             1.000E-01
         1        12        11         1         4             1.000E-01
         1         7        12         1         1             1.000E-01
         1         8        12         1         1             1.000E-01
         1         9        12         1         1             1.000E-01
         1        10        12         1         1             1.000E-01
         1        11        12         1         1             1.000E-01

     NUMBER OF LAKE-AQUIFER CELL INTERFACES =    57


 STAGE/VOLUME RELATION FOR LAKE  1

      STAGE        VOLUME        AREA

   9.70000E+01   0.00000E+00   2.25000E+06
   9.96867E+01   6.04500E+06   2.25000E+06
   1.02373E+02   1.20900E+07   2.25000E+06
   1.05060E+02   1.81350E+07   2.25000E+06
   1.07747E+02   3.49267E+07   6.25000E+06
   1.10433E+02   5.17183E+07   6.25000E+06
   1.13120E+02   6.85100E+07   6.25000E+06
   1.15807E+02   8.53017E+07   6.25000E+06
   1.18493E+02   1.02093E+08   6.25000E+06
   1.21180E+02   1.18885E+08   6.25000E+06
   1.23867E+02   1.35677E+08   6.25000E+06
   1.26553E+02   1.52468E+08   6.25000E+06
   1.29240E+02   1.69260E+08   6.25000E+06
   1.31927E+02   1.86052E+08   6.25000E+06
   1.34613E+02   2.02843E+08   6.25000E+06
   1.37300E+02   2.19635E+08   6.25000E+06
   1.39987E+02   2.36427E+08   6.25000E+06
   1.42673E+02   2.53218E+08   6.25000E+06
   1.45360E+02   2.70010E+08   6.25000E+06
   1.48047E+02   2.86802E+08   6.25000E+06
   1.50733E+02   3.03593E+08   6.25000E+06
   1.53420E+02   3.20385E+08   6.25000E+06
   1.56107E+02   3.37177E+08   6.25000E+06
   1.58793E+02   3.53968E+08   6.25000E+06
   1.61480E+02   3.70760E+08   6.25000E+06
   1.64167E+02   3.87552E+08   6.25000E+06
   1.66853E+02   4.04343E+08   6.25000E+06
   1.69540E+02   4.21135E+08   6.25000E+06
   1.72227E+02   4.37927E+08   6.25000E+06
   1.74913E+02   4.54718E+08   6.25000E+06
   1.77600E+02   4.71510E+08   6.25000E+06
   1.80287E+02   4.88302E+08   6.25000E+06
   1.82973E+02   5.05093E+08   6.25000E+06
   1.85660E+02   5.21885E+08   6.25000E+06
   1.88347E+02   5.38677E+08   6.25000E+06
   1.91033E+02   5.55468E+08   6.25000E+06
   1.93720E+02   5.72260E+08   6.25000E+06
   1.96407E+02   5.89052E+08   6.25000E+06
   1.99093E+02   6.05843E+08   6.25000E+06
   2.01780E+02   6.22635E+08   6.25000E+06
   2.04467E+02   6.39427E+08   6.25000E+06
   2.07153E+02   6.56218E+08   6.25000E+06
   2.09840E+02   6.73010E+08   6.25000E+06
   2.12527E+02   6.89802E+08   6.25000E+06
   2.15213E+02   7.06593E+08   6.25000E+06
   2.17900E+02   7.23385E+08   6.25000E+06
   2.20587E+02   7.40177E+08   6.25000E+06
   2.23273E+02   7.56968E+08   6.25000E+06
   2.25960E+02   7.73760E+08   6.25000E+06
   2.28647E+02   7.90552E+08   6.25000E+06
   2.31333E+02   8.07343E+08   6.25000E+06
   2.34020E+02   8.24135E+08   6.25000E+06
   2.36707E+02   8.40927E+08   6.25000E+06
   2.39393E+02   8.57718E+08   6.25000E+06
   2.42080E+02   8.74510E+08   6.25000E+06
   2.44767E+02   8.91302E+08   6.25000E+06
   2.47453E+02   9.08093E+08   6.25000E+06
   2.50140E+02   9.24885E+08   6.25000E+06
   2.52827E+02   9.41677E+08   6.25000E+06
   2.55513E+02   9.58468E+08   6.25000E+06
   2.58200E+02   9.75260E+08   6.25000E+06
   2.60887E+02   9.92052E+08   6.25000E+06
   2.63573E+02   1.00884E+09   6.25000E+06
   2.66260E+02   1.02563E+09   6.25000E+06
   2.68947E+02   1.04243E+09   6.25000E+06
   2.71633E+02   1.05922E+09   6.25000E+06
   2.74320E+02   1.07601E+09   6.25000E+06
   2.77007E+02   1.09280E+09   6.25000E+06
   2.79693E+02   1.10959E+09   6.25000E+06
   2.82380E+02   1.12638E+09   6.25000E+06
   2.85067E+02   1.14318E+09   6.25000E+06
   2.87753E+02   1.15997E+09   6.25000E+06
   2.90440E+02   1.17676E+09   6.25000E+06
   2.93127E+02   1.19355E+09   6.25000E+06
   2.95813E+02   1.21034E+09   6.25000E+06
   2.98500E+02   1.22713E+09   6.25000E+06
   3.01187E+02   1.24393E+09   6.25000E+06
   3.03873E+02   1.26072E+09   6.25000E+06
   3.06560E+02   1.27751E+09   6.25000E+06
   3.09247E+02   1.29430E+09   6.25000E+06
   3.11933E+02   1.31109E+09   6.25000E+06
   3.14620E+02   1.32789E+09   6.25000E+06
   3.17307E+02   1.34468E+09   6.25000E+06
   3.19993E+02   1.36147E+09   6.25000E+06
   3.22680E+02   1.37826E+09   6.25000E+06
   3.25367E+02   1.39505E+09   6.25000E+06
   3.28053E+02   1.41184E+09   6.25000E+06
   3.30740E+02   1.42864E+09   6.25000E+06
   3.33427E+02   1.44543E+09   6.25000E+06
   3.36113E+02   1.46222E+09   6.25000E+06
   3.38800E+02   1.47901E+09   6.25000E+06
   3.41487E+02   1.49580E+09   6.25000E+06
   3.44173E+02   1.51259E+09   6.25000E+06
   3.46860E+02   1.52939E+09   6.25000E+06
   3.49547E+02   1.54618E+09   6.25000E+06
   3.52233E+02   1.56297E+09   6.25000E+06
   3.54920E+02   1.57976E+09   6.25000E+06
   3.57607E+02   1.59655E+09   6.25000E+06
   3.60293E+02   1.61334E+09   6.25000E+06
   3.62980E+02   1.63014E+09   6.25000E+06
   3.65667E+02   1.64693E+09   6.25000E+06
   3.68353E+02   1.66372E+09   6.25000E+06
   3.71040E+02   1.68051E+09   6.25000E+06
   3.73727E+02   1.69730E+09   6.25000E+06
   3.76413E+02   1.71409E+09   6.25000E+06
   3.79100E+02   1.73089E+09   6.25000E+06
   3.81787E+02   1.74768E+09   6.25000E+06
   3.84473E+02   1.76447E+09   6.25000E+06
   3.87160E+02   1.78126E+09   6.25000E+06
   3.89847E+02   1.79805E+09   6.25000E+06
   3.92533E+02   1.81484E+09   6.25000E+06
   3.95220E+02   1.83164E+09   6.25000E+06
   3.97907E+02   1.84843E+09   6.25000E+06
   4.00593E+02   1.86522E+09   6.25000E+06
   4.03280E+02   1.88201E+09   6.25000E+06
   4.05967E+02   1.89880E+09   6.25000E+06
   4.08653E+02   1.91559E+09   6.25000E+06
   4.11340E+02   1.93239E+09   6.25000E+06
   4.14027E+02   1.94918E+09   6.25000E+06
   4.16713E+02   1.96597E+09   6.25000E+06
   4.19400E+02   1.98276E+09   6.25000E+06
   4.22087E+02   1.99955E+09   6.25000E+06
   4.24773E+02   2.01634E+09   6.25000E+06
   4.27460E+02   2.03314E+09   6.25000E+06
   4.30147E+02   2.04993E+09   6.25000E+06
   4.32833E+02   2.06672E+09   6.25000E+06
   4.35520E+02   2.08351E+09   6.25000E+06
   4.38207E+02   2.10030E+09   6.25000E+06
   4.40893E+02   2.11709E+09   6.25000E+06
   4.43580E+02   2.13389E+09   6.25000E+06
   4.46267E+02   2.15068E+09   6.25000E+06
   4.48953E+02   2.16747E+09   6.25000E+06
   4.51640E+02   2.18426E+09   6.25000E+06
   4.54327E+02   2.20105E+09   6.25000E+06
   4.57013E+02   2.21784E+09   6.25000E+06
   4.59700E+02   2.23464E+09   6.25000E+06
   4.62387E+02   2.25143E+09   6.25000E+06
   4.65073E+02   2.26822E+09   6.25000E+06
   4.67760E+02   2.28501E+09   6.25000E+06
   4.70447E+02   2.30180E+09   6.25000E+06
   4.73133E+02   2.31859E+09   6.25000E+06
   4.75820E+02   2.33539E+09   6.25000E+06
   4.78507E+02   2.35218E+09   6.25000E+06
   4.81193E+02   2.36897E+09   6.25000E+06
   4.83880E+02   2.38576E+09   6.25000E+06
   4.86567E+02   2.40255E+09   6.25000E+06
   4.89253E+02   2.41934E+09   6.25000E+06
   4.91940E+02   2.43614E+09   6.25000E+06
   4.94627E+02   2.45293E+09   6.25000E+06
   4.97313E+02   2.46972E+09   6.25000E+06
   5.00000E+02   2.48651E+09   6.25000E+06


 NUMBER OF CONNECTED LAKE SYSTEMS IN SIMULATION IS   0

 LAKE       PRECIP     EVAP     RUNOFF   WITHDRAW   BOTTOM     AREA
----------------------------------------------------------------------
   1     1.160E-02 1.030E-02 0.000E+00  0.000E+00 9.700E+01 6.250E+06




         C               INTERFACE CONDUCTANCES BETWEEN LAKE AND AQUIFER CELLS
   L     O          (IF TYPE = 6, CONDUCTANCE (L^2/T) IS BETWEEN AQUIFER CELL AND OVERLYING LAKE CELL.)
   A     L  L  T    (IF TYPE = 1 TO 4, CONDUCTANCES ARE PER UNIT SATURATED THICKNESS (L/T).)
   Y  R  U  A  Y
   E  O  M  K  P                        LAKEBED      C O N D U C T A N C E S
   R  W  N  E  E     DELTA Y   DELTA X  LEAKANCE   LAKEBED   AQUIFER  COMBINED
 _______________________________________________________________________________
   1  7  6  1  2    5.00E+02  1.00E+03  1.00E-01  5.00E+01  3.00E+01  1.875E+01
   1  8  6  1  2    5.00E+02  1.00E+03  1.00E-01  5.00E+01  3.00E+01  1.875E+01
   1  9  6  1  2    5.00E+02  1.00E+03  1.00E-01  5.00E+01  3.00E+01  1.875E+01
   1 10  6  1  2    5.00E+02  1.00E+03  1.00E-01  5.00E+01  3.00E+01  1.875E+01
   1 11  6  1  2    5.00E+02  1.00E+03  1.00E-01  5.00E+01  3.00E+01  1.875E+01
   1  6  7  1  3    1.00E+03  5.00E+02  1.00E-01  5.00E+01  3.00E+01  1.875E+01
   2  7  7  1  6    5.00E+02  5.00E+02  1.00E-01  2.50E+04  1.50E+06  2.459E+04
   2  8  7  1  6    5.00E+02  5.00E+02  1.00E-01  2.50E+04  1.50E+06  2.459E+04
   2  8  7  1  2    5.00E+02  5.00E+02  1.00E-01  5.00E+01  6.00E+01  2.727E+01
   2  9  7  1  6    5.00E+02  5.00E+02  1.00E-01  2.50E+04  1.50E+06  2.459E+04
   2  9  7  1  2    5.00E+02  5.00E+02  1.00E-01  5.00E+01  6.00E+01  2.727E+01
   2 10  7  1  6    5.00E+02  5.00E+02  1.00E-01  2.50E+04  1.50E+06  2.459E+04
   2 10  7  1  2    5.00E+02  5.00E+02  1.00E-01  5.00E+01  6.00E+01  2.727E+01
   2 11  7  1  6    5.00E+02  5.00E+02  1.00E-01  2.50E+04  1.50E+06  2.459E+04
   1 12  7  1  4    1.00E+03  5.00E+02  1.00E-01  5.00E+01  3.00E+01  1.875E+01
   1  6  8  1  3    1.00E+03  5.00E+02  1.00E-01  5.00E+01  3.00E+01  1.875E+01
   2  7  8  1  6    5.00E+02  5.00E+02  1.00E-01  2.50E+04  1.50E+06  2.459E+04
   2  7  8  1  3    5.00E+02  5.00E+02  1.00E-01  5.00E+01  6.00E+01  2.727E+01
   3  8  8  1  6    5.00E+02  5.00E+02  1.00E-01  2.50E+04  1.50E+06  2.459E+04
   3  9  8  1  6    5.00E+02  5.00E+02  1.00E-01  2.50E+04  1.50E+06  2.459E+04
   3 10  8  1  6    5.00E+02  5.00E+02  1.00E-01  2.50E+04  1.50E+06  2.459E+04
   2 11  8  1  6    5.00E+02  5.00E+02  1.00E-01  2.50E+04  1.50E+06  2.459E+04
   2 11  8  1  4    5.00E+02  5.00E+02  1.00E-01  5.00E+01  6.00E+01  2.727E+01
   1 12  8  1  4    1.00E+03  5.00E+02  1.00E-01  5.00E+01  3.00E+01  1.875E+01
   1  6  9  1  3    1.00E+03  5.00E+02  1.00E-01  5.00E+01  3.00E+01  1.875E+01
   2  7  9  1  6    5.00E+02  5.00E+02  1.00E-01  2.50E+04  1.50E+06  2.459E+04
   2  7  9  1  3    5.00E+02  5.00E+02  1.00E-01  5.00E+01  6.00E+01  2.727E+01
   3  8  9  1  6    5.00E+02  5.00E+02  1.00E-01  2.50E+04  1.50E+06  2.459E+04
   3  9  9  1  6    5.00E+02  5.00E+02  1.00E-01  2.50E+04  1.50E+06  2.459E+04
   3 10  9  1  6    5.00E+02  5.00E+02  1.00E-01  2.50E+04  1.50E+06  2.459E+04
   2 11  9  1  6    5.00E+02  5.00E+02  1.00E-01  2.50E+04  1.50E+06  2.459E+04
   2 11  9  1  4    5.00E+02  5.00E+02  1.00E-01  5.00E+01  6.00E+01  2.727E+01
   1 12  9  1  4    1.00E+03  5.00E+02  1.00E-01  5.00E+01  3.00E+01  1.875E+01
   1  6 10  1  3    1.00E+03  5.00E+02  1.00E-01  5.00E+01  3.00E+01  1.875E+01
   2  7 10  1  6    5.00E+02  5.00E+02  1.00E-01  2.50E+04  1.50E+06  2.459E+04
   2  7 10  1  3    5.00E+02  5.00E+02  1.00E-01  5.00E+01  6.00E+01  2.727E+01
   3  8 10  1  6    5.00E+02  5.00E+02  1.00E-01  2.50E+04  1.50E+06  2.459E+04
   3  9 10  1  6    5.00E+02  5.00E+02  1.00E-01  2.50E+04  1.50E+06  2.459E+04
   3 10 10  1  6    5.00E+02  5.00E+02  1.00E-01  2.50E+04  1.50E+06  2.459E+04
   2 11 10  1  6    5.00E+02  5.00E+02  1.00E-01  2.50E+04  1.50E+06  2.459E+04
   2 11 10  1  4    5.00E+02  5.00E+02  1.00E-01  5.00E+01  6.00E+01  2.727E+01
   1 12 10  1  4    1.00E+03  5.00E+02  1.00E-01  5.00E+01  3.00E+01  1.875E+01
   1  6 11  1  3    1.00E+03  5.00E+02  1.00E-01  5.00E+01  3.00E+01  1.875E+01
   2  7 11  1  6    5.00E+02  5.00E+02  1.00E-01  2.50E+04  1.50E+06  2.459E+04
   2  8 11  1  6    5.00E+02  5.00E+02  1.00E-01  2.50E+04  1.50E+06  2.459E+04
   2  8 11  1  1    5.00E+02  5.00E+02  1.00E-01  5.00E+01  6.00E+01  2.727E+01
   2  9 11  1  6    5.00E+02  5.00E+02  1.00E-01  2.50E+04  1.50E+06  2.459E+04
   2  9 11  1  1    5.00E+02  5.00E+02  1.00E-01  5.00E+01  6.00E+01  2.727E+01
   2 10 11  1  6    5.00E+02  5.00E+02  1.00E-01  2.50E+04  1.50E+06  2.459E+04
   2 10 11  1  1    5.00E+02  5.00E+02  1.00E-01  5.00E+01  6.00E+01  2.727E+01
   2 11 11  1  6    5.00E+02  5.00E+02  1.00E-01  2.50E+04  1.50E+06  2.459E+04
   1 12 11  1  4    1.00E+03  5.00E+02  1.00E-01  5.00E+01  3.00E+01  1.875E+01
   1  7 12  1  1    5.00E+02  1.00E+03  1.00E-01  5.00E+01  3.00E+01  1.875E+01
   1  8 12  1  1    5.00E+02  1.00E+03  1.00E-01  5.00E+01  3.00E+01  1.875E+01
   1  9 12  1  1    5.00E+02  1.00E+03  1.00E-01  5.00E+01  3.00E+01  1.875E+01
   1 10 12  1  1    5.00E+02  1.00E+03  1.00E-01  5.00E+01  3.00E+01  1.875E+01
   1 11 12  1  1    5.00E+02  1.00E+03  1.00E-01  5.00E+01  3.00E+01  1.875E+01


     NOTE: INFORMATION ABOUT CALCULATED LAKE/AQUIFER CONDUCTANCES WHEN USING BCF PACKAGE FOLLOWS: 

 IF WETDRY FLAG NOT TURNED ON, VERTICAL LEAKANCES ARE NOT SAVED:
 THEREFORE, LAKE/AQUIFER CONDUCTANCES ARE BASED SOLELY ON LAKEBED SPECIFICATION




 
 SOLVING FOR HEAD 

 AVERAGE SEED = 0.00000194
 MINIMUM SEED = 0.00000137

     5 ITERATION PARAMETERS CALCULATED FROM AVERAGE SEED:

  0.000000E+00 0.962690E+00 0.998608E+00 0.999948E+00 0.999998E+00

   476 ITERATIONS FOR TIME STEP   1 IN STRESS PERIOD    1

 MAXIMUM HEAD CHANGE FOR EACH ITERATION:

    HEAD CHANGE   HEAD CHANGE   HEAD CHANGE   HEAD CHANGE   HEAD CHANGE
  LAYER,ROW,COL LAYER,ROW,COL LAYER,ROW,COL LAYER,ROW,COL LAYER,ROW,COL
 ----------------------------------------------------------------------
      30.76         17.73         14.37         27.25         7.577    
  (  1,  2,  2) (  1,  3,  3) (  5, 14,  3) (  1,  8,  4) (  5, 12,  6)
      1.055        0.8803         1.146        0.9847        0.6372    
  (  1, 13,  3) (  5,  6,  8) (  1,  6,  9) (  5,  6, 10) (  2,  8, 11)
     0.8306        0.5908        0.7517        0.5902        0.8456    
  (  2, 11,  7) (  5,  9,  9) (  5, 10,  8) (  3,  8, 10) (  3, 10,  8)
     0.5684        0.5713        0.5453        0.8003        0.5541    
  (  2,  7,  7) (  5, 10,  8) (  3,  8, 10) (  3, 10,  8) (  2,  8, 11)
     0.7189        0.5150        0.6547        0.5122        0.7309    
  (  2,  7,  7) (  5,  9,  9) (  5, 10,  8) (  3,  8, 10) (  3, 10,  8)
     0.4911        0.4903        0.4672        0.6848        0.4719    
  (  2,  7,  7) (  5, 10,  8) (  3,  8, 10) (  3, 10,  8) (  2,  8, 11)
     0.6120        0.4385        0.5571        0.4352        0.6211    
  (  2,  7,  7) (  5,  9,  9) (  5, 10,  8) (  3,  8, 10) (  3, 10,  8)
     0.4165        0.4160        0.3960        0.5804        0.4000    
  (  2,  7,  7) (  5, 10,  8) (  3,  8, 10) (  3, 10,  8) (  2,  8, 11)
     0.5186        0.3713        0.4715        0.3680        0.5251    
  (  2,  7,  7) (  5,  9,  9) (  5, 10,  8) (  3,  8, 10) (  3, 10,  8)
     0.3516        0.3513        0.3342        0.4898        0.3374    
  (  2,  7,  7) (  5, 10,  8) (  3,  8, 10) (  3, 10,  8) (  2,  8, 11)
     0.4374        0.3130        0.3973        0.3098        0.4421    
  (  2,  7,  7) (  5,  9,  9) (  5, 10,  8) (  3,  8, 10) (  3, 10,  8)
     0.2956        0.2955        0.2809        0.4116        0.2836    
  (  2,  7,  7) (  5, 10,  8) (  3,  8, 10) (  3, 10,  8) (  2,  8, 11)
     0.3675        0.2629        0.3335        0.2600        0.3710    
  (  2,  7,  7) (  5,  9,  9) (  5, 10,  8) (  3,  8, 10) (  3, 10,  8)
     0.2478        0.2477        0.2353        0.3449        0.2376    
  (  2,  7,  7) (  5, 10,  8) (  3,  8, 10) (  3, 10,  8) (  2,  8, 11)
     0.3078        0.2201        0.2792        0.2175        0.3103    
  (  2,  7,  7) (  5,  9,  9) (  5, 10,  8) (  3,  8, 10) (  3, 10,  8)
     0.2071        0.2070        0.1966        0.2881        0.1985    
  (  2,  7,  7) (  5, 10,  8) (  3,  8, 10) (  3, 10,  8) (  2,  8, 11)
     0.2571        0.1838        0.2331        0.1815        0.2589    
  (  2,  7,  7) (  5,  9,  9) (  5, 10,  8) (  3,  8, 10) (  3, 10,  8)
     0.1726        0.1726        0.1639        0.2402        0.1654    
  (  2,  7,  7) (  5, 10,  8) (  3,  8, 10) (  3, 10,  8) (  2,  8, 11)
     0.2143        0.1531        0.1941        0.1511        0.2156    
  (  2,  7,  7) (  5,  9,  9) (  5, 10,  8) (  3,  8, 10) (  3, 10,  8)
     0.1437        0.1437        0.1364        0.1998        0.1376    
  (  2,  7,  7) (  5, 10,  8) (  3,  8, 10) (  3, 10,  8) (  2,  8, 11)
     0.1783        0.1273        0.1614        0.1256        0.1792    
  (  2,  7,  7) (  5,  9,  9) (  5, 10,  8) (  3,  8, 10) (  3, 10,  8)
     0.1194        0.1194        0.1133        0.1660        0.1143    
  (  2,  7,  7) (  5, 10,  8) (  3,  8, 10) (  3, 10,  8) (  2,  8, 11)
     0.1481        0.1057        0.1340        0.1043        0.1488    
  (  2,  7,  7) (  5,  9,  9) (  5, 10,  8) (  3,  8, 10) (  3, 10,  8)
     0.9903E-01    0.9906E-01    0.9398E-01    0.1377        0.9482E-01
  (  2,  7,  7) (  5, 10,  8) (  3,  8, 10) (  3, 10,  8) (  2,  8, 11)
     0.1228        0.8770E-01    0.1111        0.8643E-01    0.1233    
  (  2,  7,  7) (  5,  9,  9) (  5, 10,  8) (  3,  8, 10) (  3, 10,  8)
     0.8207E-01    0.8210E-01    0.7788E-01    0.1141        0.7857E-01
  (  2,  7,  7) (  5, 10,  8) (  3,  8, 10) (  3, 10,  8) (  2,  8, 11)
     0.1018        0.7266E-01    0.9207E-01    0.7159E-01    0.1022    
  (  2,  7,  7) (  5,  9,  9) (  5, 10,  8) (  3,  8, 10) (  3, 10,  8)
     0.6795E-01    0.6798E-01    0.6447E-01    0.9446E-01    0.6505E-01
  (  2,  7,  7) (  5, 10,  8) (  3,  8, 10) (  3, 10,  8) (  2,  8, 11)
     0.8424E-01    0.6014E-01    0.7620E-01    0.5924E-01    0.8454E-01
  (  2,  7,  7) (  5,  9,  9) (  5, 10,  8) (  3,  8, 10) (  3, 10,  8)
     0.5622E-01    0.5625E-01    0.5334E-01    0.7814E-01    0.5381E-01
  (  2,  7,  7) (  5, 10,  8) (  3,  8, 10) (  3, 10,  8) (  2,  8, 11)
     0.6969E-01    0.4974E-01    0.6302E-01    0.4899E-01    0.6991E-01
  (  2,  7,  7) (  5,  9,  9) (  5, 10,  8) (  3,  8, 10) (  3, 10,  8)
     0.4648E-01    0.4651E-01    0.4410E-01    0.6460E-01    0.4449E-01
  (  2,  7,  7) (  5, 10,  8) (  3,  8, 10) (  3, 10,  8) (  2,  8, 11)
     0.5761E-01    0.4112E-01    0.5209E-01    0.4049E-01    0.5778E-01
  (  2,  7,  7) (  5,  9,  9) (  5, 10,  8) (  3,  8, 10) (  3, 10,  8)
     0.3841E-01    0.3843E-01    0.3644E-01    0.5338E-01    0.3676E-01
  (  2,  7,  7) (  5, 10,  8) (  3,  8, 10) (  3, 10,  8) (  2,  8, 11)
     0.4760E-01    0.3397E-01    0.4304E-01    0.3345E-01    0.4773E-01
  (  2,  7,  7) (  5,  9,  9) (  5, 10,  8) (  3,  8, 10) (  3, 10,  8)
     0.3173E-01    0.3175E-01    0.3010E-01    0.4409E-01    0.3036E-01
  (  2,  7,  7) (  5, 10,  8) (  3,  8, 10) (  3, 10,  8) (  2,  8, 11)
     0.3932E-01    0.2806E-01    0.3554E-01    0.2762E-01    0.3942E-01
  (  2,  7,  7) (  5,  9,  9) (  5, 10,  8) (  3,  8, 10) (  3, 10,  8)
     0.2620E-01    0.2621E-01    0.2485E-01    0.3641E-01    0.2507E-01
  (  2,  7,  7) (  5, 10,  8) (  3,  8, 10) (  3, 10,  8) (  2,  8, 11)
     0.3246E-01    0.2317E-01    0.2934E-01    0.2280E-01    0.3254E-01
  (  2,  7,  7) (  5,  9,  9) (  5, 10,  8) (  3,  8, 10) (  3, 10,  8)
     0.2162E-01    0.2164E-01    0.2051E-01    0.3005E-01    0.2069E-01
  (  2,  7,  7) (  5, 10,  8) (  3,  8, 10) (  3, 10,  8) (  2,  8, 11)
     0.2679E-01    0.1912E-01    0.2422E-01    0.1882E-01    0.2686E-01
  (  2,  7,  7) (  5,  9,  9) (  5, 10,  8) (  3,  8, 10) (  3, 10,  8)
     0.1785E-01    0.1786E-01    0.1693E-01    0.2480E-01    0.1707E-01
  (  2,  7,  7) (  5, 10,  8) (  3,  8, 10) (  3, 10,  8) (  2,  8, 11)
     0.2211E-01    0.1578E-01    0.1999E-01    0.1553E-01    0.2216E-01
  (  2,  7,  7) (  5,  9,  9) (  5, 10,  8) (  3,  8, 10) (  3, 10,  8)
     0.1472E-01    0.1473E-01    0.1397E-01    0.2046E-01    0.1409E-01
  (  2,  7,  7) (  5, 10,  8) (  3,  8, 10) (  3, 10,  8) (  2,  8, 11)
     0.1824E-01    0.1302E-01    0.1649E-01    0.1281E-01    0.1828E-01
  (  2,  7,  7) (  5,  9,  9) (  5, 10,  8) (  3,  8, 10) (  3, 10,  8)
     0.1215E-01    0.1215E-01    0.1152E-01    0.1688E-01    0.1162E-01
  (  2,  7,  7) (  5, 10,  8) (  3,  8, 10) (  3, 10,  8) (  2,  8, 11)
     0.1505E-01    0.1074E-01    0.1360E-01    0.1057E-01    0.1508E-01
  (  2,  7,  7) (  5,  9,  9) (  5, 10,  8) (  3,  8, 10) (  3, 10,  8)
     0.1002E-01    0.1003E-01    0.9502E-02    0.1392E-01    0.9585E-02
  (  2,  7,  7) (  5, 10,  8) (  3,  8, 10) (  3, 10,  8) (  2,  8, 11)
     0.1241E-01    0.8856E-02    0.1122E-01    0.8716E-02    0.1244E-01
  (  2,  7,  7) (  5,  9,  9) (  5, 10,  8) (  3,  8, 10) (  3, 10,  8)
     0.8263E-02    0.8268E-02    0.7837E-02    0.1148E-01    0.7905E-02
  (  2,  7,  7) (  5, 10,  8) (  3,  8, 10) (  3, 10,  8) (  2,  8, 11)
     0.1024E-01    0.7304E-02    0.9251E-02    0.7188E-02    0.1026E-01
  (  2,  7,  7) (  5,  9,  9) (  5, 10,  8) (  3,  8, 10) (  3, 10,  8)
     0.6814E-02    0.6819E-02    0.6462E-02    0.9468E-02    0.6519E-02
  (  2,  7,  7) (  5, 10,  8) (  3,  8, 10) (  3, 10,  8) (  2,  8, 11)
     0.8441E-02    0.6023E-02    0.7629E-02    0.5927E-02    0.8458E-02
  (  2,  7,  7) (  5,  9,  9) (  5, 10,  8) (  3,  8, 10) (  3, 10,  8)
     0.5619E-02    0.5622E-02    0.5329E-02    0.7807E-02    0.5375E-02
  (  2,  7,  7) (  5, 10,  8) (  3,  8, 10) (  3, 10,  8) (  2,  8, 11)
     0.6960E-02    0.4966E-02    0.6290E-02    0.4887E-02    0.6974E-02
  (  2,  7,  7) (  5,  9,  9) (  5, 10,  8) (  3,  8, 10) (  3, 10,  8)
     0.4633E-02    0.4636E-02    0.4394E-02    0.6437E-02    0.4432E-02
  (  2,  7,  7) (  5, 10,  8) (  3,  8, 10) (  3, 10,  8) (  2,  8, 11)
     0.5739E-02    0.4095E-02    0.5187E-02    0.4030E-02    0.5750E-02
  (  2,  7,  7) (  5,  9,  9) (  5, 10,  8) (  3,  8, 10) (  3, 10,  8)
     0.3820E-02    0.3822E-02    0.3623E-02    0.5307E-02    0.3654E-02
  (  2,  7,  7) (  5, 10,  8) (  3,  8, 10) (  3, 10,  8) (  2,  8, 11)
     0.4732E-02    0.3376E-02    0.4276E-02    0.3322E-02    0.4741E-02
  (  2,  7,  7) (  5,  9,  9) (  5, 10,  8) (  3,  8, 10) (  3, 10,  8)
     0.3149E-02    0.3151E-02    0.2987E-02    0.4376E-02    0.3013E-02
  (  2,  7,  7) (  5, 10,  8) (  3,  8, 10) (  3, 10,  8) (  2,  8, 11)
     0.3901E-02    0.2783E-02    0.3525E-02    0.2739E-02    0.3909E-02
  (  2,  7,  7) (  5,  9,  9) (  5, 10,  8) (  3,  8, 10) (  3, 10,  8)
     0.2596E-02    0.2598E-02    0.2462E-02    0.3607E-02    0.2484E-02
  (  2,  7,  7) (  5, 10,  8) (  3,  8, 10) (  3, 10,  8) (  2,  8, 11)
     0.3216E-02    0.2295E-02    0.2906E-02    0.2258E-02    0.3222E-02
  (  2,  7,  7) (  5,  9,  9) (  5, 10,  8) (  3,  8, 10) (  3, 10,  8)
     0.2140E-02    0.2142E-02    0.2030E-02    0.2974E-02    0.2048E-02
  (  2,  7,  7) (  5, 10,  8) (  3,  8, 10) (  3, 10,  8) (  2,  8, 11)
     0.2651E-02    0.1892E-02    0.2396E-02    0.1862E-02    0.2656E-02
  (  2,  7,  7) (  5,  9,  9) (  5, 10,  8) (  3,  8, 10) (  3, 10,  8)
     0.1765E-02    0.1766E-02    0.1673E-02    0.2452E-02    0.1688E-02
  (  2,  7,  7) (  5, 10,  8) (  3,  8, 10) (  3, 10,  8) (  2,  8, 11)
     0.2186E-02    0.1560E-02    0.1975E-02    0.1535E-02    0.2190E-02
  (  2,  7,  7) (  5,  9,  9) (  5, 10,  8) (  3,  8, 10) (  3, 10,  8)
     0.1455E-02    0.1456E-02    0.1380E-02    0.2021E-02    0.1392E-02
  (  2,  7,  7) (  5, 10,  8) (  3,  8, 10) (  3, 10,  8) (  2,  8, 11)
     0.1802E-02    0.1286E-02    0.1628E-02    0.1265E-02    0.1805E-02
  (  2,  7,  7) (  5,  9,  9) (  5, 10,  8) (  3,  8, 10) (  3, 10,  8)
     0.1199E-02    0.1200E-02    0.1137E-02    0.1666E-02    0.1147E-02
  (  2,  7,  7) (  5, 10,  8) (  3,  8, 10) (  3, 10,  8) (  2,  8, 11)
     0.1485E-02    0.1060E-02    0.1342E-02    0.1043E-02    0.1488E-02
  (  2,  7,  7) (  5,  9,  9) (  5, 10,  8) (  3,  8, 10) (  3, 10,  8)
     0.9885E-03    0.9892E-03    0.9375E-03    0.1373E-02    0.9456E-03
  (  2,  7,  7) (  5, 10,  8) (  3,  8, 10) (  3, 10,  8) (  2,  8, 11)
     0.1224E-02    0.8736E-03    0.1107E-02    0.8597E-03    0.1227E-02
  (  2,  7,  7) (  5,  9,  9) (  5, 10,  8) (  3,  8, 10) (  3, 10,  8)
     0.8148E-03    0.8154E-03    0.7728E-03    0.1132E-02    0.7795E-03
  (  2,  7,  7) (  5, 10,  8) (  3,  8, 10) (  3, 10,  8) (  2,  8, 11)
     0.1009E-02    0.7202E-03    0.9121E-03    0.7086E-03    0.1011E-02
  (  2,  7,  7) (  5,  9,  9) (  5, 10,  8) (  3,  8, 10) (  3, 10,  8)
     0.6717E-03    0.6722E-03    0.6370E-03    0.9333E-03    0.6426E-03
  (  2,  7,  7) (  5, 10,  8) (  3,  8, 10) (  3, 10,  8) (  2,  8, 11)
     0.8320E-03    0.5936E-03    0.7519E-03    0.5841E-03    0.8336E-03
  (  2,  7,  7) (  5,  9,  9) (  5, 10,  8) (  3,  8, 10) (  3, 10,  8)
     0.5537E-03    0.5541E-03    0.5251E-03    0.7693E-03    0.5297E-03
  (  2,  7,  7) (  5, 10,  8) (  3,  8, 10) (  3, 10,  8) (  2,  8, 11)
     0.6859E-03    0.4894E-03    0.6198E-03    0.4815E-03    0.6871E-03
  (  2,  7,  7) (  5,  9,  9) (  5, 10,  8) (  3,  8, 10) (  3, 10,  8)
     0.4564E-03    0.4567E-03    0.4328E-03    0.6341E-03    0.4366E-03
  (  2,  7,  7) (  5, 10,  8) (  3,  8, 10) (  3, 10,  8) (  2,  8, 11)
     0.5654E-03    0.4034E-03    0.5109E-03    0.3969E-03    0.5664E-03
  (  2,  7,  7) (  5,  9,  9) (  5, 10,  8) (  3,  8, 10) (  3, 10,  8)
     0.3762E-03    0.3765E-03    0.3568E-03    0.5227E-03    0.3599E-03
  (  2,  7,  7) (  5, 10,  8) (  3,  8, 10) (  3, 10,  8) (  2,  8, 11)
     0.4660E-03    0.3325E-03    0.4211E-03    0.3272E-03    0.4669E-03
  (  2,  7,  7) (  5,  9,  9) (  5, 10,  8) (  3,  8, 10) (  3, 10,  8)
     0.3101E-03    0.3103E-03    0.2941E-03    0.4309E-03    0.2967E-03
  (  2,  7,  7) (  5, 10,  8) (  3,  8, 10) (  3, 10,  8) (  2,  8, 11)
     0.3841E-03    0.2741E-03    0.3471E-03    0.2697E-03    0.3849E-03
  (  2,  7,  7) (  5,  9,  9) (  5, 10,  8) (  3,  8, 10) (  3, 10,  8)
     0.2556E-03    0.2558E-03    0.2424E-03    0.3552E-03    0.2446E-03
  (  2,  7,  7) (  5, 10,  8) (  3,  8, 10) (  3, 10,  8) (  2,  8, 11)
     0.3167E-03    0.2259E-03    0.2862E-03    0.2223E-03    0.3172E-03
  (  2,  7,  7) (  5,  9,  9) (  5, 10,  8) (  3,  8, 10) (  3, 10,  8)
     0.2107E-03    0.2109E-03    0.1998E-03    0.2928E-03    0.2016E-03
  (  2,  7,  7) (  5, 10,  8) (  3,  8, 10) (  3, 10,  8) (  2,  8, 11)
     0.2610E-03    0.1862E-03    0.2359E-03    0.1833E-03    0.2615E-03
  (  2,  7,  7) (  5,  9,  9) (  5, 10,  8) (  3,  8, 10) (  3, 10,  8)
     0.1737E-03    0.1738E-03    0.1647E-03    0.2413E-03    0.1662E-03
  (  2,  7,  7) (  5, 10,  8) (  3,  8, 10) (  3, 10,  8) (  2,  8, 11)
     0.2152E-03    0.1535E-03    0.1944E-03    0.1511E-03    0.2156E-03
  (  2,  7,  7) (  5,  9,  9) (  5, 10,  8) (  3,  8, 10) (  3, 10,  8)
     0.1432E-03    0.1433E-03    0.1358E-03    0.1989E-03    0.1370E-03
  (  2,  7,  7) (  5, 10,  8) (  3,  8, 10) (  3, 10,  8) (  2,  8, 11)
     0.1774E-03    0.1265E-03    0.1603E-03    0.1245E-03    0.1777E-03
  (  2,  7,  7) (  5,  9,  9) (  5, 10,  8) (  3,  8, 10) (  3, 10,  8)
     0.1180E-03    0.1181E-03    0.1119E-03    0.1640E-03    0.1129E-03
  (  2,  7,  7) (  5, 10,  8) (  3,  8, 10) (  3, 10,  8) (  2,  8, 11)
     0.1462E-03    0.1043E-03    0.1321E-03    0.1026E-03    0.1465E-03
  (  2,  7,  7) (  5,  9,  9) (  5, 10,  8) (  3,  8, 10) (  3, 10,  8)
     0.9728E-04
  (  2,  7,  7)


 HEAD/DRAWDOWN PRINTOUT FLAG = 1     TOTAL BUDGET PRINTOUT FLAG = 1
 CELL-BY-CELL FLOW TERM FLAG = 1

 OUTPUT FLAGS FOR EACH LAYER:
          HEAD    DRAWDOWN  HEAD  DRAWDOWN
 LAYER  PRINTOUT  PRINTOUT  SAVE    SAVE
 -----------------------------------------
    1       0         0       0       0
    2       0         0       0       0
    3       0         0       0       0
    4       0         0       0       0
    5       1         0       0       0


     0  LAKE CELLS ARE DRY.

 PERIOD     1     TIME STEP     1     TIME STEP LENGTH  1.0000E+00
 PERIOD TIME  1.0000E+00     TOTAL SIMULATION TIME  1.0000E+00


                 HYDROLOGIC BUDGET SUMMARIES FOR SIMULATED LAKES
     (ALL FLUID FLUXES ARE VOLUMES ADDED TO THE LAKE DURING PRESENT TIME STEP)
     ----------------------------------------------------------------------------------------
 LAKE    STAGE         VOLUME     VOL. CHANGE      PRECIP     EVAPORATION        RUNOFF
   1  1.482842E+02  2.882862E+08     N/A (SS)   7.250000E+04  6.437500E+04  0.000000E+00

            GROUND WATER            SURFACE WATER        WATER
 LAKE    INFLOW     OUTFLOW      INFLOW     OUTFLOW       USE
   1  1.6887E+04  2.4955E+04  0.0000E+00  0.0000E+00  0.0000E+00

      CONNECTED LAKE   TIME-STEP         STAGE-CHANGE          PERCENT
 LAKE    INFLUX      SURFACE AREA   TIME STEP  CUMULATIVE    DISCREPANCY
   1   0.0000E+00     6.2500E+06     N/A (SS)   N/A (SS)        0.063
 --------------------------------------------------------------------------------



            CUMULATIVE HYDROLOGIC BUDGET SUMMARIES FOR SIMULATED LAKES
     (ALL FLUID FLUXES ARE SUMS OF VOLUMES ADDED TO THE LAKE SINCE INITIAL TIME)
     ---------------------------------------------------------------------------
 LAKE       PRECIP       EVAP       RUNOFF
   1     7.2500E+04  6.4375E+04  0.0000E+00

            GROUND WATER            SURFACE WATER
 LAKE    INFLOW     OUTFLOW      INFLOW     OUTFLOW
   1  1.6887E+04  2.4955E+04  0.0000E+00  0.0000E+00

         WATER    CONNECTED LAKE   CHANGE       PERCENT
 LAKE     USE         INFLUX       IN VOL.    DISCREPANCY
   1   0.0000E+00   0.0000E+00    N/A (SS)       0.063
 --------------------------------------------------------------------------------

1
              HEAD IN LAYER   5 AT END OF TIME STEP   1 IN STRESS PERIOD    1
  ---------------------------------------------------------------------------

          1      2      3      4      5      6      7      8      9     10
 .........................................................................
   1   160.0  158.8  157.3  155.8  154.2  152.7  151.5  150.8  150.0  149.2
   2   160.0  158.6  156.7  155.1  153.4  151.9  150.7  149.9  149.1  148.4
   3   160.0  158.4  156.3  154.5  152.8  151.1  150.0  149.2  148.4  147.6
   4   160.0  158.3  156.1  154.2  152.4  150.8  149.6  148.8  148.1  147.3
   5   160.0  158.2  155.9  154.0  152.2  150.5  149.4  148.6  147.9  147.2
   6   160.0  158.2  155.9  153.9  152.1  150.3  149.1  148.5  148.0  147.5
   7   160.0  158.2  155.9  153.8  152.0  150.1  148.4  148.3  148.3  148.3
   8   160.0  158.2  155.8  153.8  151.9  150.0  148.3  148.3  148.3  148.3
   9   160.0  158.2  155.8  153.8  151.9  150.0  148.3  148.3  148.3  148.3
  10   160.0  158.2  155.8  153.8  151.9  150.0  148.3  148.3  148.3  148.3
  11   160.0  158.2  155.9  153.8  152.0  150.1  148.4  148.3  148.3  148.3
  12   160.0  158.2  155.9  153.9  152.1  150.3  149.1  148.5  148.0  147.5
  13   160.0  158.2  155.9  154.0  152.2  150.5  149.4  148.6  147.9  147.2
  14   160.0  158.3  156.1  154.2  152.4  150.8  149.6  148.8  148.1  147.3
  15   160.0  158.4  156.3  154.5  152.8  151.1  150.0  149.2  148.4  147.6
  16   160.0  158.6  156.7  155.1  153.4  151.9  150.7  149.9  149.1  148.4
  17   160.0  158.8  157.3  155.8  154.2  152.7  151.5  150.8  150.0  149.2
1
              HEAD IN LAYER   5 AT END OF TIME STEP   1 IN STRESS PERIOD    1
  ---------------------------------------------------------------------------

         11     12     13     14     15     16     17
 ....................................................
   1   148.5  147.3  145.8  144.2  142.7  141.2  140.0
   2   147.6  146.4  144.9  143.4  141.9  140.6  140.0
   3   146.9  145.7  144.2  142.7  141.4  140.3  140.0
   4   146.5  145.4  143.8  142.4  141.1  140.2  140.0
   5   146.5  145.3  143.7  142.3  141.0  140.1  140.0
   6   146.8  145.5  143.8  142.2  141.0  140.1  140.0
   7   148.2  145.9  143.9  142.3  141.0  140.1  140.0
   8   148.2  146.0  143.9  142.3  141.0  140.1  140.0
   9   148.2  146.0  143.9  142.3  141.0  140.1  140.0
  10   148.2  146.0  143.9  142.3  141.0  140.1  140.0
  11   148.2  145.9  143.9  142.3  141.0  140.1  140.0
  12   146.8  145.5  143.8  142.2  141.0  140.1  140.0
  13   146.5  145.3  143.7  142.3  141.0  140.1  140.0
  14   146.5  145.4  143.8  142.4  141.1  140.2  140.0
  15   146.9  145.7  144.2  142.7  141.4  140.3  140.0
  16   147.6  146.4  144.9  143.4  141.9  140.6  140.0
  17   148.5  147.3  145.8  144.2  142.7  141.2  140.0



  -------------------------------------------------------------------------------------
  VOLUMETRIC BUDGET FOR ENTIRE MODEL AT END OF TIME STEP    1 IN STRESS PERIOD      1
  -------------------------------------------------------------------------------------

     CUMULATIVE VOLUMES      L**3       RATES FOR THIS TIME STEP      L**3/T
     ------------------                 ------------------------

           IN:                                      IN:
           ---                                      ---
             STORAGE =           0.0000               STORAGE =           0.0000
       CONSTANT HEAD =      166882.6615         CONSTANT HEAD =      166882.6615
                  ET =           0.0000                    ET =           0.0000
            RECHARGE =     1740000.0000              RECHARGE =     1740000.0000
     SPECIFIED FLOWS =           0.0000       SPECIFIED FLOWS =           0.0000
       LAKE  SEEPAGE =       24955.2850         LAKE  SEEPAGE =       24955.2850

            TOTAL IN =     1931837.9465              TOTAL IN =     1931837.9465

          OUT:                                     OUT:
          ----                                     ----
             STORAGE =           0.0000               STORAGE =           0.0000
       CONSTANT HEAD =        9490.5209         CONSTANT HEAD =        9490.5209
                  ET =     1905452.5258                    ET =     1905452.5258
            RECHARGE =           0.0000              RECHARGE =           0.0000
     SPECIFIED FLOWS =           0.0000       SPECIFIED FLOWS =           0.0000
       LAKE  SEEPAGE =       16886.7378         LAKE  SEEPAGE =       16886.7378

           TOTAL OUT =     1931829.7845             TOTAL OUT =     1931829.7845

            IN - OUT =           8.1620              IN - OUT =           8.1620

 PERCENT DISCREPANCY =           0.00     PERCENT DISCREPANCY =           0.00


          TIME SUMMARY AT END OF TIME STEP     1 IN STRESS PERIOD      1
                    SECONDS     MINUTES      HOURS       DAYS        YEARS
                    -----------------------------------------------------------
   TIME STEP LENGTH  86400.      1440.0      24.000      1.0000     2.73785E-03
 STRESS PERIOD TIME  86400.      1440.0      24.000      1.0000     2.73785E-03
         TOTAL TIME  86400.      1440.0      24.000      1.0000     2.73785E-03
 

 Final Remark:

   The solver successfully met the user supplied convergence criteria, HCLOSE and RCLOSE, for all 1 time steps.

   Please check the "VOLUMETRIC BUDGET FOR ENTIRE MODEL" to ensure that mass rate balance errors are acceptable for all time steps.

   The cumulative mass error for the entire simulation is 0.00 %




 Simulation finished at  


 Which had an elapsed run time of: 0.0 seconds


    OneWater Simulation Now Complete


