💧🧙💦🌊  <-These symbols help text editors identify file as Unicode UTF8.
                    UTF8 is not necessary to view numerical results, but no UTF8 support can have artifacts where non-ascii symbols are used (such as the degree symbol).


MODFLOW-OWHM v2.2.0

      MMMMMMM                                       MM      MMM     MM
    MMM     MMM    MM      M   MMMMMMMM             LM     DM M     ML     MM     MMMMMMMMM  MMMMMMMM  MMMMMMMM
   MM         MM   MMM     M   MM                    MM    MM M     M     MMMM        M      M         MM     NM
   MM         MM   MM M    M   MM                    MM    M  MM   MM    MM  MM       M      M         MM      M
   MM         MM   MM  M   M   MMMMMMMM               MN  MM   M   MM   MM    MM      M      MMMMMMM   MMMMMMMMM
   MM         MM   MM   M  M   MM         MMMMMMM     MM  M    MM MM    MMMMMMMM      M      M         MM   MM
   MM         MM   MM    M M   MM                     LM MM    NM MM   MM      MM     M      M         MM    MM
    MM       NM    MM     MM   MM                      M M      M M   MN        MM    M      M         MM     MM
     MMMMMMMMN     MM      M   MMMMMMMM                7MM      7MM  MN          MM   M      MMMMMMMM  MM      MM


                        MODFLOW
            ONE-WATER HYDROLOGIC-FLOW MODEL

    U.S. Geological Survey Modular Finite-Difference
           Conjunctive Use Simulation Program

                      Version 2.2

 Release: 0

 Includes the following base versions with enhancements:

          MODFLOW-2005 Version 1.12
          MODFLOW-FMP  Version 4.1
          MODFLOW-SWR  Version 1.04
          MODFLOW-SWI  Version 2.0
          MODFLOW-LGR  Version 2.0
          MODFLOW-NWT  Version 1.2
          MODFLOW-CFP  Version 1.09.57
                  SWO  Version 1.0

------------------------------------------------------------------------------------
USGS Software Disclaimer:                                                          |
                                                                                   |
   No warranty, expressed or implied, is made by the USGS or the U.S. Government   |
   as to the functionality of the software and related material nor shall the      |
   fact of release constitute any such warranty.                                   |
                                                                                   |
   The software is provided on the condition that neither the USGS nor             |
   the U.S. Government shall be held liable for any damages resulting from the     |
   authorized or unauthorized use of the software.                                 |
                                                                                   |
   Newer versions may be present at the official code and download repository:     |
      https://code.usgs.gov/modflow/mf-owhm                                        |
                                                                                   |
------------------------------------------------------------------------------------

∙∙∙∙∙∙∙∙∙∙∙∙∙∙∙∙∙∙∙∙∙∙∙∙∙∙∙∙∙∙∙∙∙∙∙∙∙∙∙∙∙∙∙∙∙∙∙∙∙∙∙∙∙∙∙∙∙∙∙∙∙∙
    OneWater Simulation Initiated at  
∙∙∙∙∙∙∙∙∙∙∙∙∙∙∙∙∙∙∙∙∙∙∙∙∙∙∙∙∙∙∙∙∙∙∙∙∙∙∙∙∙∙∙∙∙∙∙∙∙∙∙∙∙∙∙∙∙∙∙∙∙∙


 LIST FILE: ./output/mnw1.lst
      UNIT: 7

OPENING DATA FILES [DATA AND DATA(BINARY)]

OPENED DATA FILE ON UNIT     89 WITH FILENAME OF: ./output/mnw1.ufh
OPENED DATA FILE ON UNIT     90 WITH FILENAME OF: ./output/mnw1.cbc

OPENING PACKAGES

DIS  PACKAGE OPENED.
BAS6 PACKAGE OPENED.
BCF  PACKAGE OPENED.
MNW1 PACKAGE OPENED.
DRN  PACKAGE OPENED.
RCH  PACKAGE OPENED.
PCG  PACKAGE OPENED.
CHD  PACKAGE OPENED.
OC   PACKAGE OPENED.

NOTIFICATION: A FILE UNIT NUMBER WAS FOUND FOR EITHER THE LIST FILE OR A PACAKGE.
IT WILL BE USED EVEN THOUGH UNIT NUMBERS FOR THE LIST FILE AND PACKAGES ARE NOW OPTIONAL.
[IT IS RECOMMENDED TO STILL USE A UNIT NUMBER FOR DATA and DATA(BINARY) ]


 BAS -- BASIC PACKAGE, VERSION OWHM INPUT READ FROM UNIT     9
 
MODFLOW was compiled using uniform precision (Precision => Number of meaningful digits in numbers)
Precision of REAL and DOUBLE PRECISION variables: 15

 DISCRETIZATION INPUT DATA READ FROM UNIT    8

-- READING DIS PACKAGE INPUT --

# mnw1
# MODFLOW-2005 Example problem documented in:
#   Harbaugh, A.W., 2005, MODFLOW-2005, the U.S. Geological Survey modular ground-water model -- the Ground-Water Flow Process: U.S. Geological Survey Techniques and Methods 6-A16.
#   Harbaugh, A.W., Banta, E.R., Hill, M.C. and McDonald, M.G., 2000, MODFLOW-2000, The U.S. Geological Survey Modular Ground-Water Model - User Guide to Modularization Concepts and the Ground-Water Flow Process: U.S Geological Survey Open-File Report 2000-92, 121 p., https://doi.org/10.3133/ofr200092
#   Halford, K.J. and Hanson R.T., 2002, User Guide for the Drawdown-Limited, Multi-Node Well (MNW) Package for the U.S. Geological Survey’s Modular Three-Dimensional Finite-Difference Ground-Water Flow Model, Versions MODFLOW-96 and MODFLOW-2000t: U.S. Geological Survey Open-File Report 02-293, 33 p.
#
#      -Comments are preceded by a # sign
#
#-----------------------------------------------------------------------------------------------------------------------------------------------------



*** DIS COORDINATE SYSTEM NOT SEPECIFIED ***
DEFAULT VALUES APPLIED ARE 0° ROTATION
WITH THE ORIGIN (0,0) LOCATED AT THE MODEL'S LOWER LEFT CORNER




DIS COORDINATE SYSTEM SEPECIFIED WITH:
GRID ROTATION OF 0.0°
WITH THE ORIGIN LOCATED AT THE OUTER MOST CORNER OF MODEL CELL [21,1] WITH:
X-COORDINATE:0.0
Y-COORDINATE:0.0
    2 LAYERS        21 ROWS        14 COLUMNS
      5 STRESS PERIOD(S) IN SIMULATION
 MODEL TIME UNIT IS DAYS
 MODEL LENGTH UNIT IS UNDEFINED
  Confining bed flag for each layer:
   0   0

                     DELR =   2500.00    

                     DELC =   2500.00    

 TOP ELEVATION OF LAYER 1 =   500.000    

   MODEL LAYER BOTTOM EL. =   50.0000     FOR LAYER   1

   MODEL LAYER BOTTOM EL. =   0.00000     FOR LAYER   2


 STRESS PERIOD     LENGTH       TIME STEPS     MULTIPLIER FOR DELT    SS FLAG  (OPTIONAL TIME STEP LENGTH)
 ---------------------------------------------------------------------------------------------------
        1         500000.0         15                  1.30000         SS
        2         500000.0         15                  1.30000         SS
        3         60.00000         15                  1.30000         TR
        4         180.0000         15                  1.30000         TR
        5         730.1000         50                  1.00000         TR

 COMBINED STEADY-STATE AND TRANSIENT SIMULATION




-- READING BAS PACKAGE INPUT --

# mnw1
# MODFLOW-2005 Example problem documented in:
#   Harbaugh, A.W., 2005, MODFLOW-2005, the U.S. Geological Survey modular ground-water model -- the Ground-Water Flow Process: U.S. Geological Survey Techniques and Methods 6-A16.
#   Harbaugh, A.W., Banta, E.R., Hill, M.C. and McDonald, M.G., 2000, MODFLOW-2000, The U.S. Geological Survey Modular Ground-Water Model - User Guide to Modularization Concepts and the Ground-Water Flow Process: U.S Geological Survey Open-File Report 2000-92, 121 p., https://doi.org/10.3133/ofr200092
#   Halford, K.J. and Hanson R.T., 2002, User Guide for the Drawdown-Limited, Multi-Node Well (MNW) Package for the U.S. Geological Survey’s Modular Three-Dimensional Finite-Difference Ground-Water Flow Model, Versions MODFLOW-96 and MODFLOW-2000t: U.S. Geological Survey Open-File Report 02-293, 33 p.
#
# Input modified for MODFLOW-OWHM by including the BAS options:
#    NOCBC  BUDGETDB ./output/mnw1_VolumetricBudget.txt  CUMULATIVE_HEAD_CHANGE ./output/mnw1_CumHCHG.txt  PRINT_HEAD NPER ./output/mnw1_Head.txt
#
#-----------------------------------------------------------------------------------------------------------------------------------------------------
#
#  3D, Transient aquifer to demonstrate MNW1 package


 THE BAS PACKAGE NOW DEFAULTS TO FREE FORMAT.
 USE OPTION "NOFREE" TO DISABLE FREE FORMAT.



########################################################################################################

                           WARNING_MESSAGE

         THE FOLLOWING COMMENTS WERE PASSED TO THE WARNING ROUTINE

THE WARNING IS BELIEVED TO HAVE ORIGINATED FROM THE FOLLOWING FILE:
"examples\mf-2005\mnw1.bas"

THE GUESSED LINE THAT THE WARNING OCCURED ON IS:
"FREE  NOCBC  BUDGETDB ./output/mnw1_VolumetricBudget.txt  CUMULATIVE_HEAD_CHANGE ./output/mnw1_CumHCHG.txt  PRINT_HEAD NPER ./output/mnw1_Head.txt"

THE DESCRIPTION OF THE WARNING IS:

FOUND BAS PACKAGE OPTION KEYWORDS ALONG PACKAGE "OPTIONS LINE" (ie Data Set 1)

The BAS package options should be within an "OPTIONS BLOCK" rather than along the first line of input.

The BAS package will attempt to read the options line, but some advanced options may fail to load due to their complex input,
For example the option "SHIFT_STRT" uses ULOAD to read NLAY shift values, which would crash under certain ULOAD keyword combinations.

Also note that if any of the options specify a GENERIC_OUTPUT file, 
then there may be additional warnings about a BAS OPTION not being a recognized GENERIC_OUTPUT post-keyword.
These warnings can be ignored, since its a post-keyword warning pertaining to the GENERIC_OUTPUT file and 
the BAS OPTION is still processed by the BAS package.

It is recommended for new models to use "BEGIN OPTIONS" and then have one option per line and
end the options block with the word "END" in place of single line of options.

For example:

BEGIN OPTIONS

  START_DATE  4/23/1901
  SHOWPROGRESS
  NOCBC
  BUDGETDB ./output/VolumetricBudget.txt
  PAUSE

END OPTIONS

             - Note that "OPTIONS BLOCK" maybe empty or entirely not present,
               nor is it required to specify an "OPTIONS LINE"

             - DO NOT specify both an "OPTIONS BLOCK" and "OPTIONS LINE" at the same time.

########################################################################################################



 NOW READING BAS OPTIONS

 Found Option: FREE
                 THE FREE FORMAT OPTION HAS BEEN SELECTED
                    -NOTE THIS NOW IS THE DEFAULT AND NOT NECESSARY.

 Found Option: NOCBC
                 No Cell-By-Cell (CBC) flows are written for simulation.

 Found Option: BUDGETDB


########################################################################################################

                           WARNING_MESSAGE

         THE FOLLOWING COMMENTS WERE PASSED TO THE WARNING ROUTINE

THE WARNING IS BELIEVED TO HAVE ORIGINATED FROM THE FOLLOWING FILE:
"examples\mf-2005\mnw1.bas"

THE GUESSED LINE THAT THE WARNING OCCURED ON IS:
"FREE  NOCBC  BUDGETDB ./output/mnw1_VolumetricBudget.txt  CUMULATIVE_HEAD_CHANGE ./output/mnw1_CumHCHG.txt  PRINT_HEAD NPER ./output/mnw1_Head.txt"

THE DESCRIPTION OF THE WARNING IS:

...CHECK_FOR_POST_KEY WARNINGS...
 THE FOLLOWING MESSAGES WERE PASSED WHILE CHECKING FOR ANY ADDITIONAL KEYWORDS ON LOADED LINE.


FAILED TO IDENTIFY THE FOLLOWING POST-KEYWORD: 

"CUMULATIVE_HEAD_CHANGE"

IT WILL BE IGNORED AND NO FURTHER KEYWORDS WILL BE CHECKED/INCLUDED TO THE RIGHT OF IT.
TO SUPRESS THIS WARNING PLEASE PLACE A "#" SYMBOL TO THE LEFT OF THE WORD TO INDICATE EVERYTHING TO THE RIGHT OF THE # IS A COMMENT

########################################################################################################




 Found Option: CUMULATIVE_HEAD_CHANGE
                 Cumulative sum of absolute head differences for the entire model.
                 This is a diagnostic feature meant for comparing MF-OWHM code versions with the same model input (software unit test).


########################################################################################################

                           WARNING_MESSAGE

         THE FOLLOWING COMMENTS WERE PASSED TO THE WARNING ROUTINE

THE WARNING IS BELIEVED TO HAVE ORIGINATED FROM THE FOLLOWING FILE:
"examples\mf-2005\mnw1.bas"

THE GUESSED LINE THAT THE WARNING OCCURED ON IS:
"FREE  NOCBC  BUDGETDB ./output/mnw1_VolumetricBudget.txt  CUMULATIVE_HEAD_CHANGE ./output/mnw1_CumHCHG.txt  PRINT_HEAD NPER ./output/mnw1_Head.txt"

THE DESCRIPTION OF THE WARNING IS:

...CHECK_FOR_POST_KEY WARNINGS...
 THE FOLLOWING MESSAGES WERE PASSED WHILE CHECKING FOR ANY ADDITIONAL KEYWORDS ON LOADED LINE.


FAILED TO IDENTIFY THE FOLLOWING POST-KEYWORD: 

"PRINT_HEAD"

IT WILL BE IGNORED AND NO FURTHER KEYWORDS WILL BE CHECKED/INCLUDED TO THE RIGHT OF IT.
TO SUPRESS THIS WARNING PLEASE PLACE A "#" SYMBOL TO THE LEFT OF THE WORD TO INDICATE EVERYTHING TO THE RIGHT OF THE # IS A COMMENT

########################################################################################################




 Found Option: PRINT_HEAD
                 NPER ./output/mnw1_Head.txt


 Setting up PRINT_HEAD option for 
    SP    TS   FILE
     5    50   ./output/mnw1_Head.txt

 The total simulation limit for the number PARAMETERs defined is: 
     Max number of PARAMETERs (MXPAR)  is       2000
     Max number of INSTANCEs  (MXINST) is      50000
     Max number of CLUSTERs   (MXCLST) is    2000000


           BOUNDARY ARRAY =              1 FOR LAYER   1

           BOUNDARY ARRAY =              2 FOR LAYER   2

 AQUIFER HEAD WILL BE SET TO 999.0 AT ALL NO-FLOW NODES (IBOUND=0).


             INITIAL HEAD =   100.000     FOR LAYER   1

             INITIAL HEAD =   100.000     FOR LAYER   2

-- READING OC PACKAGE INPUT --

# mnw1
# MODFLOW-2005 Example problem documented in:
#   Harbaugh, A.W., 2005, MODFLOW-2005, the U.S. Geological Survey modular ground-water model -- the Ground-Water Flow Process: U.S. Geological Survey Techniques and Methods 6-A16.
#   Harbaugh, A.W., Banta, E.R., Hill, M.C. and McDonald, M.G., 2000, MODFLOW-2000, The U.S. Geological Survey Modular Ground-Water Model - User Guide to Modularization Concepts and the Ground-Water Flow Process: U.S Geological Survey Open-File Report 2000-92, 121 p., https://doi.org/10.3133/ofr200092
#   Halford, K.J. and Hanson R.T., 2002, User Guide for the Drawdown-Limited, Multi-Node Well (MNW) Package for the U.S. Geological Survey’s Modular Three-Dimensional Finite-Difference Ground-Water Flow Model, Versions MODFLOW-96 and MODFLOW-2000t: U.S. Geological Survey Open-File Report 02-293, 33 p.
#
#-----------------------------------------------------------------------------------------------------------------------------------------------------



 OUTPUT CONTROL IS SPECIFIED EVERY TIME STEP
 HEAD PRINT FORMAT CODE IS   2    DRAWDOWN PRINT FORMAT CODE IS   2
 HEADS WILL BE SAVED ON UNIT   89    DRAWDOWNS WILL BE SAVED ON UNIT   89

 BCF -- BLOCK-CENTERED FLOW PACKAGE, VERSION 7, 5/2/2005
         INPUT READ FROM UNIT 10

-- READING BCF PACKAGE INPUT --

# mnw1
# MODFLOW-2005 Example problem documented in:
#   Harbaugh, A.W., 2005, MODFLOW-2005, the U.S. Geological Survey modular ground-water model -- the Ground-Water Flow Process: U.S. Geological Survey Techniques and Methods 6-A16.
#   Harbaugh, A.W., Banta, E.R., Hill, M.C. and McDonald, M.G., 2000, MODFLOW-2000, The U.S. Geological Survey Modular Ground-Water Model - User Guide to Modularization Concepts and the Ground-Water Flow Process: U.S Geological Survey Open-File Report 2000-92, 121 p., https://doi.org/10.3133/ofr200092
#   Halford, K.J. and Hanson R.T., 2002, User Guide for the Drawdown-Limited, Multi-Node Well (MNW) Package for the U.S. Geological Survey’s Modular Three-Dimensional Finite-Difference Ground-Water Flow Model, Versions MODFLOW-96 and MODFLOW-2000t: U.S. Geological Survey Open-File Report 02-293, 33 p.
#
#      -Comments are preceded by a # sign
#
#-----------------------------------------------------------------------------------------------------------------------------------------------------


 TRANSIENT SIMULATION
 HEAD AT CELLS THAT CONVERT TO DRY=   90.000    
 WETTING CAPABILITY IS NOT ACTIVE
      LAYER  LAYER-TYPE CODE     INTERBLOCK T
      --------------------------------------------
         1            1          0 -- HARMONIC    
         2            0          0 -- HARMONIC    

 COLUMN TO ROW ANISOTROPY =   1.00000    

     PRIMARY STORAGE COEF =  5.000000E-02 FOR LAYER   1

    HYD. COND. ALONG ROWS =   60.0000     FOR LAYER   1

 VERT HYD COND /THICKNESS =  2.000000E-04 FOR LAYER   1

     PRIMARY STORAGE COEF =  1.000000E-04 FOR LAYER   2

     TRANSMIS. ALONG ROWS =   15000.0     FOR LAYER   2

# mnw1
# MODFLOW-2005 Example problem documented in:
#   Harbaugh, A.W., 2005, MODFLOW-2005, the U.S. Geological Survey modular ground-water model -- the Ground-Water Flow Process: U.S. Geological Survey Techniques and Methods 6-A16.
#   Harbaugh, A.W., Banta, E.R., Hill, M.C. and McDonald, M.G., 2000, MODFLOW-2000, The U.S. Geological Survey Modular Ground-Water Model - User Guide to Modularization Concepts and the Ground-Water Flow Process: U.S Geological Survey Open-File Report 2000-92, 121 p., https://doi.org/10.3133/ofr200092
#   Halford, K.J. and Hanson R.T., 2002, User Guide for the Drawdown-Limited, Multi-Node Well (MNW) Package for the U.S. Geological Survey’s Modular Three-Dimensional Finite-Difference Ground-Water Flow Model, Versions MODFLOW-96 and MODFLOW-2000t: U.S. Geological Survey Open-File Report 02-293, 33 p.
#
#-----------------------------------------------------------------------------------------------------------------------------------------------------



 DRN -- DRAIN PACKAGE, VERSION OWHM INPUT READ FROM UNIT   77
 No named parameters
 MAXIMUM OF     50 ACTIVE DRAINS AT ONE TIME


     0 Drain parameters

 RCH -- RECHARGE PACKAGE, VERSION OWHM INPUT READ FROM UNIT   72

-- READING RCH PACKAGE INPUT --

# mnw1
# MODFLOW-2005 Example problem documented in:
#   Harbaugh, A.W., 2005, MODFLOW-2005, the U.S. Geological Survey modular ground-water model -- the Ground-Water Flow Process: U.S. Geological Survey Techniques and Methods 6-A16.
#   Harbaugh, A.W., Banta, E.R., Hill, M.C. and McDonald, M.G., 2000, MODFLOW-2000, The U.S. Geological Survey Modular Ground-Water Model - User Guide to Modularization Concepts and the Ground-Water Flow Process: U.S Geological Survey Open-File Report 2000
#   Halford, K.J. and Hanson R.T., 2002, User Guide for the Drawdown-Limited, Multi-Node Well (MNW) Package for the U.S. Geological Survey’s Modular Three-Dimensional Finite-Difference Ground-Water Flow Model, Versions MODFLOW-96 and MODFLOW-2000t: U.S.
#
#      -Comments are preceded by a # sign
#
#-----------------------------------------------------------------------------------------------------------------------------------------------------


 No named parameters
 OPTION 1 -- RECHARGE TO LAYER 1


     0 Recharge parameters

# mnw1
# MODFLOW-2005 Example problem documented in:
#   Harbaugh, A.W., 2005, MODFLOW-2005, the U.S. Geological Survey modular ground-water model -- the Ground-Water Flow Process: U.S. Geological Survey Techniques and Methods 6-A16.
#   Harbaugh, A.W., Banta, E.R., Hill, M.C. and McDonald, M.G., 2000, MODFLOW-2000, The U.S. Geological Survey Modular Ground-Water Model - User Guide to Modularization Concepts and the Ground-Water Flow Process: U.S Geological Survey Open-File Report 2000-92, 121 p., https://doi.org/10.3133/ofr200092
#   Halford, K.J. and Hanson R.T., 2002, User Guide for the Drawdown-Limited, Multi-Node Well (MNW) Package for the U.S. Geological Survey’s Modular Three-Dimensional Finite-Difference Ground-Water Flow Model, Versions MODFLOW-96 and MODFLOW-2000t: U.S. Geological Survey Open-File Report 02-293, 33 p.
#
#-----------------------------------------------------------------------------------------------------------------------------------------------------



 CHD -- TIME-VARIANT SPECIFIED-HEAD OPTION, VERSION OWHM
 INPUT READ FROM UNIT   76
 No named parameters
 MAXIMUM OF     50 TIME-VARIANT SPECIFIED-HEAD CELLS AT ONE TIME


     0 TIME-VARIANT SPECIFIED-HEAD PARAMETERS

 PCG -- CONJUGATE-GRADIENT SOLUTION PACKAGE, VERSION OWHM

-- READING PCG PACKAGE INPUT --

# mnw1
# MODFLOW-2005 Example problem documented in:
#   Harbaugh, A.W., 2005, MODFLOW-2005, the U.S. Geological Survey modular ground-water model -- the Ground-Water Flow Process: U.S. Geological Survey Techniques and Methods 6-A16.
#   Harbaugh, A.W., Banta, E.R., Hill, M.C. and McDonald, M.G., 2000, MODFLOW-2000, The U.S. Geological Survey Modular Ground-Water Model - User Guide to Modularization Concepts and the Ground-Water Flow Process: U.S Geological Survey Open-File Report 2000-92, 121 p., https://doi.org/10.3133/ofr200092
#   Halford, K.J. and Hanson R.T., 2002, User Guide for the Drawdown-Limited, Multi-Node Well (MNW) Package for the U.S. Geological Survey’s Modular Three-Dimensional Finite-Difference Ground-Water Flow Model, Versions MODFLOW-96 and MODFLOW-2000t: U.S. Geological Survey Open-File Report 02-293, 33 p.
#
#      -Comments are preceded by a # sign
#
#-----------------------------------------------------------------------------------------------------------------------------------------------------


 MAXIMUM OF     98 CALLS OF SOLUTION ROUTINE
 MAXIMUM OF    490 INTERNAL ITERATIONS PER CALL TO SOLUTION ROUTINE
 MATRIX PRECONDITIONING TYPE :    1



                                    SOLUTION BY THE CONJUGATE-GRADIENT METHOD
                                   -------------------------------------------
                    MAXIMUM NUMBER OF CALLS TO PCG ROUTINE =       98
                        MAXIMUM ITERATIONS PER CALL TO PCG =      490
                               MATRIX PRECONDITIONING TYPE =        1
        RELAXATION FACTOR (ONLY USED WITH PRECOND. TYPE 1) =    0.10000E+01
 PARAMETER OF POLYNOMIAL PRECOND. = 2 (2) OR IS CALCULATED :        2
                         HEAD CHANGE CRITERION FOR CLOSURE =    0.11010E-02
                     RESIDUAL CHANGE CRITERION FOR CLOSURE =    0.91100E+00
            PCG HEAD AND RESIDUAL CHANGE PRINTOUT INTERVAL =        1
     PRINTING FROM SOLVER IS LIMITED(1) OR SUPPRESSED (>1) =        1
                            STEADY-STATE DAMPING PARAMETER =    0.10000E+01
                               TRANSIENT DAMPING PARAMETER =    0.10000E+01

-- READING MNW1 PACKAGE INPUT --

# mnw1
# MODFLOW-2005 Example problem documented in:
#   Harbaugh, A.W., 2005, MODFLOW-2005, the U.S. Geological Survey modular ground-water model -- the Ground-Water Flow Process: U.S. Geological Survey Techniques and Methods 6-A16.
#   Harbaugh, A.W., Banta, E.R., Hill, M.C. and McDonald, M.G., 2000, MODFLOW-2000, The U.S. Geological Survey Modular Ground-Water Model - User Guide to Modularization Concepts and the Ground-Water Flow Process: U.S Geological Survey Open-File Report 2000
#   Halford, K.J. and Hanson R.T., 2002, User Guide for the Drawdown-Limited, Multi-Node Well (MNW) Package for the U.S. Geological Survey’s Modular Three-Dimensional Finite-Difference Ground-Water Flow Model, Versions MODFLOW-96 and MODFLOW-2000t: U.S.
#
#      -Comments are preceded by a # sign
#
#-----------------------------------------------------------------------------------------------------------------------------------------------------



 MNW1 -- MULTI-NODE WELL 1 PACKAGE, VERSION OWHM
    INPUT READ FROM UNIT75
 MAXIMUM OF    120 WELLS
  The heads at the beginning of SP:2 will be the default reference elevations.

 Flow rates will not be estimated after the9999th iteration


########################################################################################################

                           WARNING_MESSAGE

         THE FOLLOWING COMMENTS WERE PASSED TO THE WARNING ROUTINE

THE DESCRIPTION OF THE WARNING IS:

DIS PACKAGE: THE GROUND SURFACE ELEVATION WAS NOT SPECIFIED WITH THE KEYWORD "SURFACE_ELEVATION"

BEFORE LOADING THE "TOP" ARRAY FOR LAYER 1
NOR WAS IT DEFINED WITH ANOTHER PACKAGE   (e.g. FMPs GLOBAL DIMENSION KEYWORD "SURFACE_ELEVATION")

OneWater WILL SET THE GROUND SURFACE ELEVATION (GSE)
TO THE TOP ELEVATION OF THE UPPER MOST ACTIVE CELL OR THE DIS TOP OF LAY1.

NOTE THAT SFR DOES USE GSE FOR ALL DIVERSION SEGMENTS
   WHEN "IRDFLG" IS SET TO 2 or -2.

########################################################################################################



1
                            STRESS PERIOD NO.      1, LENGTH =   500000.0    
                            -----------------------------------------------

                              NUMBER OF TIME STEPS =    15

                               MULTIPLIER FOR DELT =     1.300

                            INITIAL TIME STEP SIZE =   2988.888    

PARAMETERS HAVE BEEN USED IN PACKAGES

THE CURRENT STORAGE FOR PARAMETERS IS: 
No. PARAMETER=         0 WITH MAX STORAGE (MXPAR)  OF      2000
No. CLUSTERS =         0 WITH MAX STORAGE (MXCLST) OF   2000000
No. INSTANCES=         0 WITH MAX STORAGE (MXINST) OF     50000

YOU CAN INCREASE/DECREASE STORAGE WITH BAS OPTION:
MAXPARAM  MXPAR  MXCLST MXINST

FYI, YOU CAN REDUCE RAM USUAGE WITH BAS OPTION
(NOTE THE THREE NUMBERS ARE A MINUMUM SIZE):
   MAXPARAM          1         1         1


 DRAIN NO.  LAYER   ROW   COL     DRAIN EL.  CONDUCTANCE         
 ----------------------------------------------------------------
      1      1     13     13       128.0          0.1000E+05
      2      1     13     12       128.0          0.1000E+05
      3      1     13     11       129.0          0.1000E+05
      4      1     13     10       129.0          0.1000E+05
      5      1     13      9       130.0          0.1000E+05
      6      1     13      8       130.0          0.1000E+05
      7      1     13      7       131.0          0.1000E+05
      8      1     13      6       131.0          0.1000E+05

      8 DRAINS

                 RECHARGE =  1.600000E-03

 CHD NO.   LAYER   ROW   COL    START HEAD        END HEAD         
 ------------------------------------------------------------------
      1      1      1     14       139.0           139.0    
      2      1      2     14       138.0           138.0    
      3      1      3     14       137.0           137.0    
      4      1      4     14       136.0           136.0    
      5      1      5     14       135.0           135.0    
      6      1      6     14       134.0           134.0    
      7      1      7     14       133.0           133.0    
      8      1      8     14       132.0           132.0    
      9      1      9     14       131.0           131.0    
     10      1     10     14       130.0           130.0    
     11      1     11     14       129.0           129.0    
     12      1     12     14       128.0           128.0    
     13      1     13     14       127.0           127.0    
     14      1     14     14       126.0           126.0    
     15      1     15     14       125.0           125.0    
     16      1     16     14       124.0           124.0    
     17      1     17     14       123.0           123.0    
     18      1     18     14       122.0           122.0    
     19      1     19     14       121.0           121.0    
     20      1     20     14       120.0           120.0    
     21      1     21     14       119.0           119.0    


     21 TIME-VARIANT SPECIFIED-HEAD CELLS

             17 MNW WELLS
    No.   Lay   Row   Col    Stress   QW param      Rw       Skin    WL Limit    WL Refer   NonLinear Cp  QW Group  Cell-To-Well  Min-Qoff  Min-Qon  Site Identifier
      1     1     3     3  0.000      395.0     0.5000      1.000      0.000      100.0      0.00000             1  2386.73         0.000     0.000  Well-A                          
      2     2     3     3  0.000      200.0     0.5000      1.000      0.000      100.0      0.00000             2  11933.6         0.000     0.000  Well-A                          
      3     1     3     6  0.000      304.0      0.000      1.000      0.000      100.0      0.00000             3 0.300000E+07     0.000     0.000  NO-PRINT                        
      4     1     3     9  0.000      240.0     -5000.      1.000      0.000      100.0      0.00000             4  5000.00         0.000     0.000  NO-PRINT                        
      5     1     3    12  0.000      175.0     0.5000      1.000      0.000      100.0      0.00000             5  2386.73         0.000     0.000  Well-B                          
      6     2     3    12  0.000      175.0     0.5000      1.000      0.000      100.0      0.00000             6  11933.6         0.000     0.000  Well-B                          
      7     1     6     3  0.000      302.0      0.000      1.000      0.000      100.0      0.00000             7 0.300000E+07     0.000     0.000  NO-PRINT                        
      8     1     6     6  0.000      230.0     0.5000      1.000      0.000      100.0      0.00000             8  2386.73         0.000     0.000  NO-PRINT                        
      9     1     6     9  0.000      180.0     0.5000      1.000      0.000      100.0      0.00000             9  2386.73         0.000     0.000  NO-PRINT                        
     10     1     6    12  0.000      145.0     0.5000      1.000      0.000      100.0      0.00000            10  2386.73         0.000     0.000  NO-PRINT                        
     11     1     9     3  0.000      244.0     0.5000      1.000      0.000      100.0      0.00000            11  2386.73         0.000     0.000  NO-PRINT                        
     12     1     9     6  0.000      189.0     0.5000      1.000      0.000      100.0      0.00000            12  2386.73         0.000     0.000  NO-PRINT                        
     13     1     9     9  0.000      147.0     0.5000      1.000      0.000      100.0      0.00000            13  2386.73         0.000     0.000  NO-PRINT                        
     14     1     9    12  0.000      119.0     0.5000      1.000      0.000      100.0      0.00000            14  2386.73         0.000     0.000  NO-PRINT                        
     15     2    15     9  0.000     -1.000      0.000      0.000      0.000      100.0      0.00000            15 0.150000E+08     0.000     0.000  NO-PRINT                        
     16     2    13     7  0.000     -1.000      0.000      0.000      0.000      100.0      0.00000            16 0.150000E+08     0.000     0.000  Simple-C                        
     17     1    18     4  0.000     -1.000      0.000      0.000      0.000      100.0      0.00000            17 0.300000E+07     0.000     0.000  NO-PRINT                        
 
 SOLVING FOR HEAD 


Solver Convergence Information:
                              HClose:  3.3864148E-5
                              RClose:  0.3845788
                           L2-RClose:  1.0066479
                         Rel-Vol-Err:  1.0479567E-9
 

 HEAD/DRAWDOWN PRINTOUT FLAG = 0     TOTAL BUDGET PRINTOUT FLAG = 0
 CELL-BY-CELL FLOW TERM FLAG = 0

 OUTPUT FLAGS FOR ALL LAYERS ARE THE SAME:
   HEAD    DRAWDOWN  HEAD  DRAWDOWN
 PRINTOUT  PRINTOUT  SAVE    SAVE
 ----------------------------------
     1         0       1       0


    10 CALLS TO PCG ROUTINE FOR TIME STEP   1 IN STRESS PERIOD    1
   109 TOTAL ITERATIONS
 
 SOLVING FOR HEAD 


Solver Convergence Information:
                              HClose:  3.3869333E-5
                              RClose:  0.3379086
                           L2-RClose:  0.8507783
                         Rel-Vol-Err:  1.0521177E-9
 

 HEAD/DRAWDOWN PRINTOUT FLAG = 0     TOTAL BUDGET PRINTOUT FLAG = 0
 CELL-BY-CELL FLOW TERM FLAG = 0
 REUSING PREVIOUS VALUES OF IOFLG
     1 CALLS TO PCG ROUTINE FOR TIME STEP   2 IN STRESS PERIOD    1
     1 TOTAL ITERATIONS
 
 SOLVING FOR HEAD 


Solver Convergence Information:
                              HClose:  2.2501913E-5
                              RClose:  0.3176240
                           L2-RClose:  0.7586483
                         Rel-Vol-Err:  1.0163968E-9
 

 HEAD/DRAWDOWN PRINTOUT FLAG = 0     TOTAL BUDGET PRINTOUT FLAG = 0
 CELL-BY-CELL FLOW TERM FLAG = 0
 REUSING PREVIOUS VALUES OF IOFLG
     1 CALLS TO PCG ROUTINE FOR TIME STEP   3 IN STRESS PERIOD    1
     1 TOTAL ITERATIONS
 
 SOLVING FOR HEAD 


Solver Convergence Information:
                              HClose:  2.3051624E-5
                              RClose:  0.2986530
                           L2-RClose:  0.6660128
                         Rel-Vol-Err:  9.5568964E-10
 

 HEAD/DRAWDOWN PRINTOUT FLAG = 0     TOTAL BUDGET PRINTOUT FLAG = 0
 CELL-BY-CELL FLOW TERM FLAG = 0
 REUSING PREVIOUS VALUES OF IOFLG
     1 CALLS TO PCG ROUTINE FOR TIME STEP   4 IN STRESS PERIOD    1
     1 TOTAL ITERATIONS
 
 SOLVING FOR HEAD 


Solver Convergence Information:
                              HClose:  1.7726699E-5
                              RClose:  0.2654485
                           L2-RClose:  0.6017649
                         Rel-Vol-Err:  8.4943535E-10
 

 HEAD/DRAWDOWN PRINTOUT FLAG = 0     TOTAL BUDGET PRINTOUT FLAG = 0
 CELL-BY-CELL FLOW TERM FLAG = 0
 REUSING PREVIOUS VALUES OF IOFLG
     1 CALLS TO PCG ROUTINE FOR TIME STEP   5 IN STRESS PERIOD    1
     1 TOTAL ITERATIONS
 
 SOLVING FOR HEAD 


Solver Convergence Information:
                              HClose:  1.8058449E-5
                              RClose:  0.2399185
                           L2-RClose:  0.5273458
                         Rel-Vol-Err:  7.6773909E-10
 

 HEAD/DRAWDOWN PRINTOUT FLAG = 0     TOTAL BUDGET PRINTOUT FLAG = 0
 CELL-BY-CELL FLOW TERM FLAG = 0
 REUSING PREVIOUS VALUES OF IOFLG
     1 CALLS TO PCG ROUTINE FOR TIME STEP   6 IN STRESS PERIOD    1
     1 TOTAL ITERATIONS
 
 SOLVING FOR HEAD 


Solver Convergence Information:
                              HClose:  1.4316659E-5
                              RClose:  0.2103575
                           L2-RClose:  0.4786835
                         Rel-Vol-Err:  6.7314397E-10
 

 HEAD/DRAWDOWN PRINTOUT FLAG = 0     TOTAL BUDGET PRINTOUT FLAG = 0
 CELL-BY-CELL FLOW TERM FLAG = 0
 REUSING PREVIOUS VALUES OF IOFLG
     1 CALLS TO PCG ROUTINE FOR TIME STEP   7 IN STRESS PERIOD    1
     1 TOTAL ITERATIONS
 
 SOLVING FOR HEAD 


Solver Convergence Information:
                              HClose:  1.4371501E-5
                              RClose:  0.1888326
                           L2-RClose:  0.4189226
                         Rel-Vol-Err:  6.0426426E-10
 

 HEAD/DRAWDOWN PRINTOUT FLAG = 0     TOTAL BUDGET PRINTOUT FLAG = 0
 CELL-BY-CELL FLOW TERM FLAG = 0
 REUSING PREVIOUS VALUES OF IOFLG
     1 CALLS TO PCG ROUTINE FOR TIME STEP   8 IN STRESS PERIOD    1
     1 TOTAL ITERATIONS
 
 SOLVING FOR HEAD 


Solver Convergence Information:
                              HClose:  1.1584333E-5
                              RClose:  0.1652742
                           L2-RClose:  0.3820751
                         Rel-Vol-Err:  5.2887747E-10
 

 HEAD/DRAWDOWN PRINTOUT FLAG = 0     TOTAL BUDGET PRINTOUT FLAG = 0
 CELL-BY-CELL FLOW TERM FLAG = 0
 REUSING PREVIOUS VALUES OF IOFLG
     1 CALLS TO PCG ROUTINE FOR TIME STEP   9 IN STRESS PERIOD    1
     1 TOTAL ITERATIONS
 
 SOLVING FOR HEAD 


Solver Convergence Information:
                              HClose:  1.1509580E-5
                              RClose:  0.1482027
                           L2-RClose:  0.3340717
                         Rel-Vol-Err:  4.7424877E-10
 

 HEAD/DRAWDOWN PRINTOUT FLAG = 0     TOTAL BUDGET PRINTOUT FLAG = 0
 CELL-BY-CELL FLOW TERM FLAG = 0
 REUSING PREVIOUS VALUES OF IOFLG
     1 CALLS TO PCG ROUTINE FOR TIME STEP  10 IN STRESS PERIOD    1
     1 TOTAL ITERATIONS
 
 SOLVING FOR HEAD 


Solver Convergence Information:
                              HClose:  9.3909898E-6
                              RClose:  0.1297961
                           L2-RClose:  0.3060270
                         Rel-Vol-Err:  4.1534749E-10
 

 HEAD/DRAWDOWN PRINTOUT FLAG = 0     TOTAL BUDGET PRINTOUT FLAG = 0
 CELL-BY-CELL FLOW TERM FLAG = 0
 REUSING PREVIOUS VALUES OF IOFLG
     1 CALLS TO PCG ROUTINE FOR TIME STEP  11 IN STRESS PERIOD    1
     1 TOTAL ITERATIONS
 
 SOLVING FOR HEAD 


Solver Convergence Information:
                              HClose:  9.2544828E-6
                              RClose:  0.1164334
                           L2-RClose:  0.2673474
                         Rel-Vol-Err:  3.7258688E-10
 

 HEAD/DRAWDOWN PRINTOUT FLAG = 0     TOTAL BUDGET PRINTOUT FLAG = 0
 CELL-BY-CELL FLOW TERM FLAG = 0
 REUSING PREVIOUS VALUES OF IOFLG
     1 CALLS TO PCG ROUTINE FOR TIME STEP  12 IN STRESS PERIOD    1
     1 TOTAL ITERATIONS
 
 SOLVING FOR HEAD 


Solver Convergence Information:
                              HClose:  7.6270294E-6
                              RClose:  0.1021011
                           L2-RClose:  0.2458663
                         Rel-Vol-Err:  3.2672353E-10
 

 HEAD/DRAWDOWN PRINTOUT FLAG = 0     TOTAL BUDGET PRINTOUT FLAG = 0
 CELL-BY-CELL FLOW TERM FLAG = 0
 REUSING PREVIOUS VALUES OF IOFLG
     1 CALLS TO PCG ROUTINE FOR TIME STEP  13 IN STRESS PERIOD    1
     1 TOTAL ITERATIONS
 
 SOLVING FOR HEAD 


Solver Convergence Information:
                              HClose:  7.4633088E-6
                              RClose:  0.0916676
                           L2-RClose:  0.2145989
                         Rel-Vol-Err:  2.9333635E-10
 

 HEAD/DRAWDOWN PRINTOUT FLAG = 0     TOTAL BUDGET PRINTOUT FLAG = 0
 CELL-BY-CELL FLOW TERM FLAG = 0
 REUSING PREVIOUS VALUES OF IOFLG
     1 CALLS TO PCG ROUTINE FOR TIME STEP  14 IN STRESS PERIOD    1
     1 TOTAL ITERATIONS
 
 SOLVING FOR HEAD 


Solver Convergence Information:
                              HClose:  6.2044326E-6
                              RClose:  0.0804970
                           L2-RClose:  0.1980459
                         Rel-Vol-Err:  2.5759053E-10
 

 HEAD/DRAWDOWN PRINTOUT FLAG = 1     TOTAL BUDGET PRINTOUT FLAG = 1
 CELL-BY-CELL FLOW TERM FLAG = 1
 REUSING PREVIOUS VALUES OF IOFLG
     1 CALLS TO PCG ROUTINE FOR TIME STEP  15 IN STRESS PERIOD    1
     1 TOTAL ITERATIONS
1
              HEAD IN LAYER   1 AT END OF TIME STEP  15 IN STRESS PERIOD    1
  ---------------------------------------------------------------------------

              1             2             3             4             5             6             7             8             9
             10            11            12            13            14
 ..............................................................................................................................
   1    181.749       181.408       180.755       179.857       178.646       177.089       175.163       172.833       170.036    
        166.654       162.471       157.093       149.764       139.000    
   2    181.601       181.224       180.493       179.663       178.485       176.935       175.007       172.672       169.868    
        166.477       162.282       156.866       149.346       138.000    
   3    181.335       180.879       179.785       179.296       178.181       176.634       174.695       172.348       169.531    
        166.126       161.919       156.541       148.753       137.000    
   4    181.022       180.633       179.877       179.011       177.789       176.195       174.226       171.855       169.019    
        165.590       161.330       155.786       147.985       136.000    
   5    180.604       180.242       179.540       178.559       177.250       175.596       173.584       171.183       168.325    
        164.876       160.588       154.989       147.140       135.000    
   6    180.066       179.699       178.979       177.925       176.536       174.811       172.744       170.306       167.428    
        163.973       159.686       154.084       146.222       134.000    
   7    179.416       179.026       178.254       177.117       175.629       173.808       171.665       169.179       166.285    
        162.843       158.589       153.035       145.219       133.000    
   8    178.675       178.245       177.392       176.134       174.499       172.532       170.274       167.725       164.820    
        161.416       157.240       151.795       144.104       132.000    
   9    177.875       177.386       176.412       174.968       173.097       170.884       168.444       165.804       162.899    
        159.571       155.537       150.287       142.837       131.000    
  10    177.058       176.491       175.345       173.616       171.342       168.678       165.933       163.168       160.288    
        157.099       153.300       148.375       141.337       130.000    
  11    176.286       175.623       174.254       172.103       169.125       165.531       162.273       159.362       156.574    
        153.627       150.207       145.799       139.453       129.000    
  12    175.634       174.879       173.269       170.575       166.401       160.526       156.495       153.523       151.008    
        148.472       145.655       142.043       136.861       128.000    
  13    175.178       174.376       172.625       169.503       163.767       150.851       146.463       143.925       142.167    
        140.260       138.442       135.968       132.812       127.000    
  14    174.957       174.194       172.568       169.848       165.633       159.698       155.610       152.580       150.001    
        147.385       144.468       140.714       135.306       126.000    
  15    174.940       174.262       172.863       170.666       167.622       163.941       160.586       157.567       154.652    
        151.549       147.926       143.226       136.407       125.000    
  16    175.058       174.470       173.282       171.489       169.127       166.353       163.476       160.558       157.492    
        154.071       149.965       144.596       136.830       124.000    
  17    175.242       174.727       173.700       172.175       170.195       167.846       165.240       162.402       159.256    
        155.623       151.179       145.332       136.891       123.000    
  18    175.439       174.977       174.059       172.702       170.935       168.804       166.346       163.557       160.358    
        156.577       151.893       145.696       136.747       122.000    
  19    175.611       175.184       174.335       173.078       171.432       169.415       167.038       164.272       161.034    
        157.151       152.294       145.836       136.486       121.000    
  20    175.736       175.330       174.521       173.320       171.738       169.781       167.443       164.687       161.423    
        157.472       152.497       145.851       136.176       120.000    
  21    175.802       175.405       174.615       173.438       171.884       169.952       167.631       164.879       161.600    
        157.614       152.577       145.819       135.908       119.000    
1
              HEAD IN LAYER   2 AT END OF TIME STEP  15 IN STRESS PERIOD    1
  ---------------------------------------------------------------------------

              1             2             3             4             5             6             7             8             9
             10            11            12            13            14
 ..............................................................................................................................
   1    176.832       176.531       175.916       174.954       173.685       172.131       170.305       168.223       165.912    
        163.419       160.826       158.277       156.028       154.510    
   2    176.724       176.439       175.858       174.853       173.558       171.990       170.156       168.067       165.751    
        163.250       160.645       158.075       155.819       154.284    
   3    176.494       176.244       175.839       174.639       173.293       171.704       169.856       167.756       165.430    
        162.918       160.291       157.660       155.429       153.881    
   4    176.112       175.816       175.215       174.185       172.862       171.266       169.403       167.290       164.952    
        162.432       159.805       157.206       154.912       153.336    
   5    175.617       175.290       174.632       173.620       172.296       170.683       168.800       166.669       164.318    
        161.791       159.162       156.567       154.252       152.661    
   6    175.032       174.685       173.992       172.958       171.605       169.960       168.047       165.892       163.526    
        160.994       158.368       155.777       153.462       151.867    
   7    174.375       174.007       173.277       172.199       170.797       169.101       167.143       164.957       162.576    
        160.043       157.428       154.854       152.554       150.967    
   8    173.667       173.274       172.497       171.355       169.879       168.110       166.092       163.865       161.468    
        158.941       156.349       153.809       151.543       149.979    
   9    172.933       172.509       171.673       170.446       168.870       167.001       164.901       162.624       160.209    
        157.697       155.145       152.660       150.449       148.924    
  10    172.212       171.752       170.843       169.510       167.803       165.798       163.592       161.254       158.824    
        156.337       153.841       151.433       149.304       147.839    
  11    171.547       171.049       170.062       168.607       166.737       164.556       162.221       159.815       157.375    
        154.921       152.495       150.182       148.158       146.775    
  12    170.984       170.455       169.399       167.829       165.784       163.387       160.915       158.450       156.006    
        153.587       151.228       149.008       147.095       145.810    
  13    170.562       170.018       168.929       167.295       165.132       162.530       159.971       157.475       155.027    
        152.618       150.285       148.106       146.257       145.044    
  14    170.300       169.764       168.696       167.105       165.034       162.603       160.092       157.580       155.082    
        152.602       150.176       147.886       145.905       144.569    
  15    170.184       169.674       168.661       167.168       165.246       162.999       160.585       158.088       155.541    
        152.967       150.408       147.953       145.791       144.304    
  16    170.183       169.704       168.757       167.368       165.584       163.484       161.162       158.688       156.102    
        153.436       150.742       148.122       145.785       144.161    
  17    170.255       169.806       168.919       167.618       165.943       163.950       161.700       159.246       156.626    
        153.880       151.067       148.301       145.814       144.074    
  18    170.359       169.935       169.096       167.863       166.267       164.347       162.147       159.705       157.058    
        154.246       151.335       148.449       145.838       144.003    
  19    170.465       170.059       169.254       168.069       166.525       164.653       162.484       160.049       157.380    
        154.517       151.530       148.551       145.843       143.931    
  20    170.548       170.153       169.371       168.214       166.703       164.860       162.709       160.276       157.591    
        154.693       151.654       148.610       145.830       143.859    
  21    170.593       170.204       169.432       168.290       166.793       164.963       162.820       160.389       157.695    
        154.779       151.713       148.634       145.814       143.803    

 HEAD WILL BE SAVED ON UNIT   89 AT END OF TIME STEP    15 IN STRESS PERIOD      1



  -------------------------------------------------------------------------------------
  VOLUMETRIC BUDGET FOR ENTIRE MODEL AT END OF TIME STEP   15 IN STRESS PERIOD      1
  -------------------------------------------------------------------------------------

     CUMULATIVE VOLUMES      L**3       RATES FOR THIS TIME STEP      L**3/T
     ------------------                 ------------------------

           IN:                                      IN:
           ---                                      ---
             STORAGE =           0.0000               STORAGE =           0.0000
       CONSTANT HEAD =           0.0000         CONSTANT HEAD =           0.0000
              DRAINS =           0.0000                DRAINS =           0.0000
            RECHARGE =       1.3650E+12              RECHARGE =     2730000.0000
                 MNW = 10040247678.0299                   MNW =       20080.5002

            TOTAL IN =       1.3750E+12              TOTAL IN =     2750080.5002

          OUT:                                     OUT:
          ----                                     ----
             STORAGE =           0.0000               STORAGE =           0.0000
       CONSTANT HEAD =890563356886.5426         CONSTANT HEAD =     1781126.8186
              DRAINS =474436446876.4882                DRAINS =      948872.9431
            RECHARGE =           0.0000              RECHARGE =           0.0000
                 MNW = 10040247678.0298                   MNW =       20080.5002

           TOTAL OUT =       1.3750E+12             TOTAL OUT =     2750080.2619

            IN - OUT =      196236.9695              IN - OUT =           0.2383

 PERCENT DISCREPANCY =           0.00     PERCENT DISCREPANCY =           0.00


          TIME SUMMARY AT END OF TIME STEP    15 IN STRESS PERIOD      1
                    SECONDS     MINUTES      HOURS       DAYS        YEARS
                    -----------------------------------------------------------
   TIME STEP LENGTH 1.01679E+10 1.69465E+08 2.82441E+06 1.17684E+05  322.20    
 STRESS PERIOD TIME 4.32000E+10 7.20000E+08 1.20000E+07 5.00000E+05  1368.9    
         TOTAL TIME 4.32000E+10 7.20000E+08 1.20000E+07 5.00000E+05  1368.9    
 
1
                            STRESS PERIOD NO.      2, LENGTH =   500000.0    
                            -----------------------------------------------

                              NUMBER OF TIME STEPS =    15

                               MULTIPLIER FOR DELT =     1.300

                            INITIAL TIME STEP SIZE =   2988.888    

 REUSING NON-PARAMETER DRAINS FROM LAST STRESS PERIOD

      8 DRAINS

                 RECHARGE =  1.600000E-03

 REUSING NON-PARAMETER SPECIFIED-HEAD DATA FROM LAST STRESS PERIOD


     21 TIME-VARIANT SPECIFIED-HEAD CELLS

             17 MNW WELLS
    No.   Lay   Row   Col    Stress   QW param      Rw       Skin    WL Limit    WL Refer   NonLinear Cp  QW Group  Cell-To-Well  Min-Qoff  Min-Qon  Site Identifier
      1     1     3     3-0.2000E+05  395.0     0.5000      1.000      129.8      179.8      0.00000             1  6195.21         0.000     0.000  Well-A                          
      2     2     3     3  0.000      200.0     0.5000      1.000      129.8      179.8      0.00000             1  11933.6         0.000     0.000  Well-A                          
      3     1     3     6-0.6685E+05  304.0      1.000      1.000      156.6      176.6      0.00000             1  6626.41         0.000     0.000  NO-PRINT                        
      4     1     3     9-0.6685E+05  240.0     -5000.      1.000      144.5      169.5      0.00000             1  5000.00         0.000     0.000  NO-PRINT                        
      5     1     3    12  0.000      100.0     0.5000      1.000      140.0      156.5      0.00000             1  5085.69         0.000     0.000  Well-B                          
      6     2     3    12-0.1000E+06  500.0     0.5000      1.000      140.0      156.5      0.00000             1  11933.6         0.000     0.000  Well-B                          
      7     1     6     3-0.6685E+05  302.0     0.1500      1.000      159.0      179.0      0.00000             2  5342.33         0.000     0.000  NO-PRINT                        
      8     1     6     6-0.6685E+05  230.0     0.5000      1.000      124.8      174.8      0.00000             2  5957.82         0.000     0.000  NO-PRINT                        
      9     1     6     9-0.6685E+05  180.0     0.5000      1.000      117.4      167.4      0.00000             2  5605.37         0.000     0.000  NO-PRINT                        
     10     1     6    12-0.6685E+05  145.0     0.5000      1.000      115.0      154.1      0.00000             2  4968.41         0.000     0.000  NO-PRINT                        
     11     1     9     3-0.6685E+05  244.0     0.5000      1.000      126.4      176.4      0.00000             3  6034.24         0.000     0.000  NO-PRINT                        
     12     1     9     6-0.6685E+05  189.0     0.5000      1.000      120.9      170.9      0.00000             3  5770.35         0.000     0.000  NO-PRINT                        
     13     1     9     9-0.6685E+05  147.0     0.5000      1.000      112.9      162.9      0.00000             3  5389.19         0.000     0.000  NO-PRINT                        
     14     1     9    12-0.6685E+05  119.0     0.5000      1.000      115.0      150.3      0.00000             3  4787.17         0.000     0.000  NO-PRINT                        
     15     2    15     9-0.1003E+06 -1.000      0.000      0.000    -0.1000E+27  155.5      0.00000            15 0.150000E+08     0.000     0.000  NO-PRINT                        
     16     2    13     7-0.6685E+05 -1.000      0.000      0.000    -0.1000E+27  160.0      0.00000            16 0.150000E+08     0.000     0.000  Simple-C                        
     17     1    18     4-0.1003E+06 -1.000      0.000      0.000    -0.1000E+27  172.7      0.00000            17 0.736210E+07     0.000     0.000  NO-PRINT                        

READING PCG SOLVER STRESS PERIOD INFORMATION


########################################################################################################################
PCG INPUT FILE STRESS PERIOD CONVERGENCE INFORMATION FAILED READ FOR STRESS PERIOD     2
 REUSING PREVIOUSLY DEFINED CRITERIA FOR REMAINDER OF SIMULATION.
########################################################################################################################
 
 SOLVING FOR HEAD 


Solver Convergence Information:
                              HClose:  3.6765344E-5
                              RClose:  0.6165227
                           L2-RClose:  1.3727724
                         Rel-Vol-Err:  1.9728726E-9
 

 HEAD/DRAWDOWN PRINTOUT FLAG = 0     TOTAL BUDGET PRINTOUT FLAG = 0
 CELL-BY-CELL FLOW TERM FLAG = 0
 REUSING PREVIOUS VALUES OF IOFLG


     9 CALLS TO PCG ROUTINE FOR TIME STEP   1 IN STRESS PERIOD    2
    87 TOTAL ITERATIONS
 
 SOLVING FOR HEAD 


Solver Convergence Information:
                              HClose:  2.5146573E-5
                              RClose:  0.5119127
                           L2-RClose:  1.2166859
                         Rel-Vol-Err:  1.6381205E-9
 

 HEAD/DRAWDOWN PRINTOUT FLAG = 0     TOTAL BUDGET PRINTOUT FLAG = 0
 CELL-BY-CELL FLOW TERM FLAG = 0
 REUSING PREVIOUS VALUES OF IOFLG
     1 CALLS TO PCG ROUTINE FOR TIME STEP   2 IN STRESS PERIOD    2
     1 TOTAL ITERATIONS
 
 SOLVING FOR HEAD 


Solver Convergence Information:
                              HClose:  2.4844980E-5
                              RClose:  0.4731677
                           L2-RClose:  1.0591155
                         Rel-Vol-Err:  1.5141365E-9
 

 HEAD/DRAWDOWN PRINTOUT FLAG = 0     TOTAL BUDGET PRINTOUT FLAG = 0
 CELL-BY-CELL FLOW TERM FLAG = 0
 REUSING PREVIOUS VALUES OF IOFLG
     1 CALLS TO PCG ROUTINE FOR TIME STEP   3 IN STRESS PERIOD    2
     1 TOTAL ITERATIONS
 
 SOLVING FOR HEAD 


Solver Convergence Information:
                              HClose:  2.1196804E-5
                              RClose:  0.4277675
                           L2-RClose:  0.9579877
                         Rel-Vol-Err:  1.3688560E-9
 

 HEAD/DRAWDOWN PRINTOUT FLAG = 0     TOTAL BUDGET PRINTOUT FLAG = 0
 CELL-BY-CELL FLOW TERM FLAG = 0
 REUSING PREVIOUS VALUES OF IOFLG
     1 CALLS TO PCG ROUTINE FOR TIME STEP   4 IN STRESS PERIOD    2
     1 TOTAL ITERATIONS
 
 SOLVING FOR HEAD 


Solver Convergence Information:
                              HClose:  1.9704111E-5
                              RClose:  0.3931721
                           L2-RClose:  0.8422181
                         Rel-Vol-Err:  1.2581508E-9
 

 HEAD/DRAWDOWN PRINTOUT FLAG = 0     TOTAL BUDGET PRINTOUT FLAG = 0
 CELL-BY-CELL FLOW TERM FLAG = 0
 REUSING PREVIOUS VALUES OF IOFLG
     1 CALLS TO PCG ROUTINE FOR TIME STEP   5 IN STRESS PERIOD    2
     1 TOTAL ITERATIONS
 
 SOLVING FOR HEAD 


Solver Convergence Information:
                              HClose:  1.7200917E-5
                              RClose:  0.3538515
                           L2-RClose:  0.7664569
                         Rel-Vol-Err:  1.1323247E-9
 

 HEAD/DRAWDOWN PRINTOUT FLAG = 0     TOTAL BUDGET PRINTOUT FLAG = 0
 CELL-BY-CELL FLOW TERM FLAG = 0
 REUSING PREVIOUS VALUES OF IOFLG
     1 CALLS TO PCG ROUTINE FOR TIME STEP   6 IN STRESS PERIOD    2
     1 TOTAL ITERATIONS
 
 SOLVING FOR HEAD 


Solver Convergence Information:
                              HClose:  1.5908640E-5
                              RClose:  0.3238796
                           L2-RClose:  0.6755366
                         Rel-Vol-Err:  1.0364148E-9
 

 HEAD/DRAWDOWN PRINTOUT FLAG = 0     TOTAL BUDGET PRINTOUT FLAG = 0
 CELL-BY-CELL FLOW TERM FLAG = 0
 REUSING PREVIOUS VALUES OF IOFLG
     1 CALLS TO PCG ROUTINE FOR TIME STEP   7 IN STRESS PERIOD    2
     1 TOTAL ITERATIONS
 
 SOLVING FOR HEAD 


Solver Convergence Information:
                              HClose:  1.3976699E-5
                              RClose:  0.2907162
                           L2-RClose:  0.6168803
                         Rel-Vol-Err:  9.3029198E-10
 

 HEAD/DRAWDOWN PRINTOUT FLAG = 0     TOTAL BUDGET PRINTOUT FLAG = 0
 CELL-BY-CELL FLOW TERM FLAG = 0
 REUSING PREVIOUS VALUES OF IOFLG
     1 CALLS TO PCG ROUTINE FOR TIME STEP   8 IN STRESS PERIOD    2
     1 TOTAL ITERATIONS
 
 SOLVING FOR HEAD 


Solver Convergence Information:
                              HClose:  1.2914332E-5
                              RClose:  0.2653638
                           L2-RClose:  0.5443069
                         Rel-Vol-Err:  8.4916410E-10
 

 HEAD/DRAWDOWN PRINTOUT FLAG = 0     TOTAL BUDGET PRINTOUT FLAG = 0
 CELL-BY-CELL FLOW TERM FLAG = 0
 REUSING PREVIOUS VALUES OF IOFLG
     1 CALLS TO PCG ROUTINE FOR TIME STEP   9 IN STRESS PERIOD    2
     1 TOTAL ITERATIONS
 
 SOLVING FOR HEAD 


Solver Convergence Information:
                              HClose:  1.1380440E-5
                              RClose:  0.2377923
                           L2-RClose:  0.4982511
                         Rel-Vol-Err:  7.6093528E-10
 

 HEAD/DRAWDOWN PRINTOUT FLAG = 0     TOTAL BUDGET PRINTOUT FLAG = 0
 CELL-BY-CELL FLOW TERM FLAG = 0
 REUSING PREVIOUS VALUES OF IOFLG
     1 CALLS TO PCG ROUTINE FOR TIME STEP  10 IN STRESS PERIOD    2
     1 TOTAL ITERATIONS
 
 SOLVING FOR HEAD 


Solver Convergence Information:
                              HClose:  1.0508719E-5
                              RClose:  0.2166447
                           L2-RClose:  0.4398807
                         Rel-Vol-Err:  6.9326316E-10
 

 HEAD/DRAWDOWN PRINTOUT FLAG = 0     TOTAL BUDGET PRINTOUT FLAG = 0
 CELL-BY-CELL FLOW TERM FLAG = 0
 REUSING PREVIOUS VALUES OF IOFLG
     1 CALLS TO PCG ROUTINE FOR TIME STEP  11 IN STRESS PERIOD    2
     1 TOTAL ITERATIONS
 
 SOLVING FOR HEAD 


Solver Convergence Information:
                              HClose:  9.2797358E-6
                              RClose:  0.1939249
                           L2-RClose:  0.4034137
                         Rel-Vol-Err:  6.2055961E-10
 

 HEAD/DRAWDOWN PRINTOUT FLAG = 0     TOTAL BUDGET PRINTOUT FLAG = 0
 CELL-BY-CELL FLOW TERM FLAG = 0
 REUSING PREVIOUS VALUES OF IOFLG
     1 CALLS TO PCG ROUTINE FOR TIME STEP  12 IN STRESS PERIOD    2
     1 TOTAL ITERATIONS
 
 SOLVING FOR HEAD 


Solver Convergence Information:
                              HClose:  8.5622921E-6
                              RClose:  0.1764420
                           L2-RClose:  0.3562471
                         Rel-Vol-Err:  5.6461427E-10
 

 HEAD/DRAWDOWN PRINTOUT FLAG = 0     TOTAL BUDGET PRINTOUT FLAG = 0
 CELL-BY-CELL FLOW TERM FLAG = 0
 REUSING PREVIOUS VALUES OF IOFLG
     1 CALLS TO PCG ROUTINE FOR TIME STEP  13 IN STRESS PERIOD    2
     1 TOTAL ITERATIONS
 
 SOLVING FOR HEAD 


Solver Convergence Information:
                              HClose:  7.5742239E-6
                              RClose:  0.1578301
                           L2-RClose:  0.3272071
                         Rel-Vol-Err:  5.0505630E-10
 

 HEAD/DRAWDOWN PRINTOUT FLAG = 0     TOTAL BUDGET PRINTOUT FLAG = 0
 CELL-BY-CELL FLOW TERM FLAG = 0
 REUSING PREVIOUS VALUES OF IOFLG
     1 CALLS TO PCG ROUTINE FOR TIME STEP  14 IN STRESS PERIOD    2
     1 TOTAL ITERATIONS
 
 SOLVING FOR HEAD 


Solver Convergence Information:
                              HClose:  6.9820898E-6
                              RClose:  0.1434636
                           L2-RClose:  0.2889755
                         Rel-Vol-Err:  4.5908349E-10
 

 HEAD/DRAWDOWN PRINTOUT FLAG = 1     TOTAL BUDGET PRINTOUT FLAG = 1
 CELL-BY-CELL FLOW TERM FLAG = 1
 REUSING PREVIOUS VALUES OF IOFLG
     1 CALLS TO PCG ROUTINE FOR TIME STEP  15 IN STRESS PERIOD    2
     1 TOTAL ITERATIONS
1
              HEAD IN LAYER   1 AT END OF TIME STEP  15 IN STRESS PERIOD    2
  ---------------------------------------------------------------------------

              1             2             3             4             5             6             7             8             9
             10            11            12            13            14
 ..............................................................................................................................
   1    166.776       166.420       165.755       164.889       163.743       162.327       160.741       158.882       156.769    
        154.580       151.992       148.783       144.743       139.000    
   2    166.579       166.159       165.360       164.554       163.369       161.807       160.285       158.339       155.956    
        153.994       151.431       148.035       144.077       138.000    
   3    166.234       165.682       164.323       163.948       162.682       160.484       159.466       157.353       153.686    
        152.953       150.462       146.193       143.054       137.000    
   4    165.851       165.364       164.444       163.520       162.147       160.374       158.859       156.873       154.382    
        152.492       149.906       146.364       142.377       136.000    
   5    165.352       164.838       163.866       162.809       161.214       159.103       157.798       155.874       153.286    
        151.511       148.879       145.101       141.330       135.000    
   6    164.744       164.105       162.628       161.851       159.897       155.926       156.319       154.403       150.009    
        150.039       147.390       141.619       139.889       134.000    
   7    164.122       163.484       162.324       161.200       159.491       157.228       155.945       154.039       151.437    
        149.715       147.082       143.237       139.480       133.000    
   8    163.451       162.641       161.137       160.241       158.623       156.351       155.039       153.115       150.515    
        148.814       146.204       142.367       138.588       132.000    
   9    162.867       161.668       158.332       159.031       157.336       153.222       153.528       151.551       147.119    
        147.267       144.697       138.915       137.188       131.000    
  10    162.723       161.869       160.254       159.117       157.199       154.606       152.928       150.885       148.383    
        146.712       144.253       140.640       136.810       130.000    
  11    162.712       162.017       160.700       158.989       156.607       153.722       151.336       149.203       147.148    
        145.246       142.987       139.994       135.922       129.000    
  12    162.720       162.055       160.702       158.575       155.350       150.893       147.898       145.738       143.955    
        142.229       140.327       137.839       134.269       128.000    
  13    162.751       162.086       160.676       158.250       153.912       144.420       141.252       139.402       138.172    
        136.786       135.532       133.705       131.412       127.000    
  14    162.822       162.188       160.872       158.750       155.568       151.165       148.141       145.905       144.019    
        142.176       140.101       137.315       133.188       126.000    
  15    162.917       162.317       161.119       159.353       157.096       154.420       151.967       149.722       147.527    
        145.359       142.749       139.208       133.912       125.000    
  16    163.003       162.395       161.207       159.595       158.019       156.201       154.228       152.135       149.886    
        147.414       144.372       140.249       134.132       124.000    
  17    163.083       162.395       160.973       158.955       158.297       157.196       155.625       153.694       151.431    
        148.756       145.389       140.822       134.086       123.000    
  18    163.222       162.435       160.495       155.885       158.123       157.829       156.555       154.729       152.446    
        149.628       146.020       141.112       133.888       122.000    
  19    163.512       162.895       161.621       159.832       159.454       158.642       157.283       155.439       153.108    
        150.182       146.395       141.223       133.599       121.000    
  20    163.806       163.338       162.451       161.324       160.397       159.274       157.794       155.896       153.514    
        150.507       146.596       141.228       133.273       120.000    
  21    163.979       163.584       162.846       161.884       160.840       159.600       158.054       156.121       153.707    
        150.657       146.677       141.193       132.994       119.000    
1
              HEAD IN LAYER   2 AT END OF TIME STEP  15 IN STRESS PERIOD    2
  ---------------------------------------------------------------------------

              1             2             3             4             5             6             7             8             9
             10            11            12            13            14
 ..............................................................................................................................
   1    161.872       161.588       161.032       160.226       159.183       157.922       156.470       154.847       153.084    
        151.235       149.360       147.614       146.304       145.482    
   2    161.748       161.456       160.889       160.075       159.020       157.745       156.287       154.650       152.863    
        150.983       149.012       147.081       145.945       145.201    
   3    161.512       161.209       160.620       159.792       158.715       157.412       155.949       154.297       152.475    
        150.571       148.421       145.676       145.348       144.776    
   4    161.186       160.875       160.271       159.412       158.306       156.985       155.505       153.858       152.070    
        150.209       148.253       146.326       145.185       144.428    
   5    160.784       160.459       159.830       158.937       157.791       156.434       154.950       153.310       151.545    
        149.749       147.920       146.186       144.874       144.025    
   6    160.325       159.981       159.317       158.393       157.201       155.787       154.312       152.674       150.904    
        149.177       147.413       145.712       144.395       143.525    
   7    159.841       159.480       158.789       157.829       156.610       155.188       153.670       152.028       150.294    
        148.571       146.844       145.197       143.846       142.949    
   8    159.363       158.974       158.237       157.242       155.981       154.515       152.963       151.306       149.576    
        147.875       146.174       144.549       143.205       142.305    
   9    158.933       158.509       157.701       156.670       155.339       153.776       152.188       150.504       148.754    
        147.098       145.427       143.803       142.504       141.620    
  10    158.599       158.165       157.337       156.201       154.762       153.106       151.398       149.683       147.972    
        146.322       144.695       143.140       141.829       140.937    
  11    158.354       157.908       157.039       155.790       154.199       152.365       150.486       148.758       147.096    
        145.490       143.927       142.441       141.155       140.273    
  12    158.193       157.730       156.814       155.457       153.678       151.554       149.353       147.731       146.157    
        144.637       143.158       141.747       140.513       139.666    
  13    158.117       157.646       156.705       155.286       153.362       150.876       147.762       146.822       145.348    
        143.944       142.559       141.202       140.003       139.186    
  14    158.125       157.664       156.744       155.373       153.562       151.363       148.996       147.065       145.068    
        143.829       142.515       141.125       139.826       138.903    
  15    158.202       157.761       156.892       155.619       153.983       152.036       149.866       147.472       144.116    
        143.927       142.749       141.273       139.826       138.774    
  16    158.328       157.908       157.089       155.917       154.457       152.732       150.785       148.652       146.399    
        144.893       143.282       141.562       139.926       138.740    
  17    158.484       158.080       157.297       156.197       154.898       153.362       151.601       149.664       147.645    
        145.756       143.833       141.879       140.057       138.748    
  18    158.661       158.272       157.514       156.446       155.293       153.896       152.259       150.421       148.444    
        146.401       144.286       142.150       140.174       138.760    
  19    158.847       158.487       157.793       156.826       155.695       154.343       152.759       150.959       148.977    
        146.851       144.614       142.349       140.253       138.753    
  20    159.002       158.669       158.027       157.121       156.003       154.665       153.098       151.306       149.309    
        147.133       144.822       142.472       140.292       138.726    
  21    159.091       158.772       158.155       157.276       156.167       154.833       153.269       151.477       149.469    
        147.269       144.922       142.528       140.301       138.693    

 HEAD WILL BE SAVED ON UNIT   89 AT END OF TIME STEP    15 IN STRESS PERIOD      2



  -------------------------------------------------------------------------------------
  VOLUMETRIC BUDGET FOR ENTIRE MODEL AT END OF TIME STEP   15 IN STRESS PERIOD      2
  -------------------------------------------------------------------------------------

     CUMULATIVE VOLUMES      L**3       RATES FOR THIS TIME STEP      L**3/T
     ------------------                 ------------------------

           IN:                                      IN:
           ---                                      ---
             STORAGE =           0.0000               STORAGE =           0.0000
       CONSTANT HEAD =           0.0000         CONSTANT HEAD =           0.0000
              DRAINS =           0.0000                DRAINS =           0.0000
            RECHARGE =       2.7300E+12              RECHARGE =     2730000.0000
                 MNW = 10112341289.2510                   MNW =         144.1900

            TOTAL IN =       2.7401E+12              TOTAL IN =     2730144.1900

          OUT:                                     OUT:
          ----                                     ----
             STORAGE =           0.0000               STORAGE =           0.0000
       CONSTANT HEAD =       1.4638E+12         CONSTANT HEAD =     1146571.5032
              DRAINS =797839918863.4667                DRAINS =      646806.9939
            RECHARGE =           0.0000              RECHARGE =           0.0000
                 MNW =478423022799.1240                   MNW =      936765.5539

           TOTAL OUT =       2.7401E+12             TOTAL OUT =     2730144.0511

            IN - OUT =      299263.4697              IN - OUT =           0.1390

 PERCENT DISCREPANCY =           0.00     PERCENT DISCREPANCY =           0.00


          TIME SUMMARY AT END OF TIME STEP    15 IN STRESS PERIOD      2
                    SECONDS     MINUTES      HOURS       DAYS        YEARS
                    -----------------------------------------------------------
   TIME STEP LENGTH 1.01679E+10 1.69465E+08 2.82441E+06 1.17684E+05  322.20    
 STRESS PERIOD TIME 4.32000E+10 7.20000E+08 1.20000E+07 5.00000E+05  1368.9    
         TOTAL TIME 8.64000E+10 1.44000E+09 2.40000E+07 1.00000E+06  2737.9    
 
1
                            STRESS PERIOD NO.      3, LENGTH =   60.00000    
                            -----------------------------------------------

                              NUMBER OF TIME STEPS =    15

                               MULTIPLIER FOR DELT =     1.300

                            INITIAL TIME STEP SIZE =  0.3586665    

 REUSING NON-PARAMETER DRAINS FROM LAST STRESS PERIOD

      8 DRAINS

                 RECHARGE =  4.570000E-04

 REUSING NON-PARAMETER SPECIFIED-HEAD DATA FROM LAST STRESS PERIOD


     21 TIME-VARIANT SPECIFIED-HEAD CELLS

             17 MNW WELLS
    No.   Lay   Row   Col    Stress   QW param      Rw       Skin    WL Limit    WL Refer   NonLinear Cp  QW Group  Cell-To-Well  Min-Qoff  Min-Qon  Site Identifier
      1     1     3     3-0.2000E+05  395.0     0.5000      1.000      129.8      179.8      0.00000             1  5457.18        45.000    65.000  Well-A                          
      2     2     3     3  0.000      200.0     0.5000      1.000      129.8      179.8      0.00000             1  11933.6        45.000    65.000  Well-A                          
      3     1     3     6-0.6685E+05  304.0      1.000      1.000      156.6      176.6      0.00000             1  5781.30        45.000    65.000  NO-PRINT                        
      4     1     3     9-0.6685E+05  240.0     -5000.      1.000      144.5      169.5      0.00000             1  5000.00        45.000    65.000  NO-PRINT                        
      5     1     3    12  0.000      100.0     0.5000      1.000      140.0      156.5      0.00000             1  4591.72        45.000    65.000  Well-B                          
      6     2     3    12-0.1300E+06  500.0     0.5000      1.000      140.0      156.5      0.00000             1  11933.6        45.000    65.000  Well-B                          
      7     1     6     3-0.6685E+05  302.0     0.5000      1.000      154.0      179.0      0.00000             2  5376.26        22.438    37.397  NO-PRINT                        
      8     1     6     6-0.6685E+05  230.0     0.5000      1.000      124.8      174.8      0.00000             2  5056.32        45.000    65.000  NO-PRINT                        
      9     1     6     9-0.6685E+05  180.0     0.5000      1.000      117.4      167.4      0.00000             2  4773.88        45.000    65.000  NO-PRINT                        
     10     1     6    12-0.6685E+05  145.0     0.5000      1.000      115.0      154.1      0.00000             2  4373.41        45.000    65.000  NO-PRINT                        
     11     1     9     3-0.6685E+05  244.0     0.5000      1.000      126.4      176.4      0.00000             3  5171.19        45.000    65.000  NO-PRINT                        
     12     1     9     6-0.6685E+05  189.0     0.5000      1.000      120.9      170.9      0.00000             3  4927.28        45.000    65.000  NO-PRINT                        
     13     1     9     9-0.6685E+05  147.0     0.5000      1.000      112.9      162.9      0.00000             3  4635.94        45.000    65.000  NO-PRINT                        
     14     1     9    12-0.6685E+05  119.0     0.5000      1.000      115.0      150.3      0.00000             3  4244.34        45.000    65.000  NO-PRINT                        
     15     2    15     9-0.1003E+06 -1.000      0.000      0.000    -0.1000E+27  155.5      0.00000            15 0.150000E+08    45.000    65.000  NO-PRINT                        
     16     2    13     7-0.6685E+05 -1.000      0.000      0.000    -0.1000E+27  160.0      0.00000            16 0.150000E+08    45.000    65.000  Simple-C                        
     17     1    18     4-0.1003E+06 -1.000      0.000      0.000    -0.1000E+27  172.7      0.00000            17 0.635310E+07    45.000    65.000  NO-PRINT                        
 
 SOLVING FOR HEAD 


Solver Convergence Information:
                              HClose:  5.3204296E-6
                              RClose:  0.0680093
                           L2-RClose:  0.1010590
                         Rel-Vol-Err:  6.5647775E-11
 

 HEAD/DRAWDOWN PRINTOUT FLAG = 0     TOTAL BUDGET PRINTOUT FLAG = 0
 CELL-BY-CELL FLOW TERM FLAG = 0
 REUSING PREVIOUS VALUES OF IOFLG


     4 CALLS TO PCG ROUTINE FOR TIME STEP   1 IN STRESS PERIOD    3
     9 TOTAL ITERATIONS
 
 SOLVING FOR HEAD 


Solver Convergence Information:
                              HClose:  5.9691071E-5
                              RClose:  0.3476005
                           L2-RClose:  0.7259564
                         Rel-Vol-Err:  6.8483207E-10
 

 HEAD/DRAWDOWN PRINTOUT FLAG = 0     TOTAL BUDGET PRINTOUT FLAG = 0
 CELL-BY-CELL FLOW TERM FLAG = 0
 REUSING PREVIOUS VALUES OF IOFLG
     3 CALLS TO PCG ROUTINE FOR TIME STEP   2 IN STRESS PERIOD    3
     7 TOTAL ITERATIONS
 
 SOLVING FOR HEAD 


Solver Convergence Information:
                              HClose:  3.5734938E-5
                              RClose:  0.1915525
                           L2-RClose:  0.3806921
                         Rel-Vol-Err:  4.2048410E-10
 

 HEAD/DRAWDOWN PRINTOUT FLAG = 0     TOTAL BUDGET PRINTOUT FLAG = 0
 CELL-BY-CELL FLOW TERM FLAG = 0
 REUSING PREVIOUS VALUES OF IOFLG
     3 CALLS TO PCG ROUTINE FOR TIME STEP   3 IN STRESS PERIOD    3
     9 TOTAL ITERATIONS
 
 SOLVING FOR HEAD 


Solver Convergence Information:
                              HClose:  1.6981542E-5
                              RClose:  0.0980096
                           L2-RClose:  0.2269423
                         Rel-Vol-Err:  2.2550536E-10
 

 HEAD/DRAWDOWN PRINTOUT FLAG = 0     TOTAL BUDGET PRINTOUT FLAG = 0
 CELL-BY-CELL FLOW TERM FLAG = 0
 REUSING PREVIOUS VALUES OF IOFLG
     3 CALLS TO PCG ROUTINE FOR TIME STEP   4 IN STRESS PERIOD    3
     9 TOTAL ITERATIONS
 
 SOLVING FOR HEAD 


Solver Convergence Information:
                              HClose:  7.3247851E-6
                              RClose:  0.0799103
                           L2-RClose:  0.2556487
[...]
 CELL-BY-CELL FLOW TERM FLAG = 0
 REUSING PREVIOUS VALUES OF IOFLG
     4 CALLS TO PCG ROUTINE FOR TIME STEP  35 IN STRESS PERIOD    5
    17 TOTAL ITERATIONS
 
 SOLVING FOR HEAD 


Solver Convergence Information:
                              HClose:  3.2458795E-5
                              RClose:  0.4229909
                           L2-RClose:  0.5868851
                         Rel-Vol-Err:  4.8907214E-10
 

 HEAD/DRAWDOWN PRINTOUT FLAG = 0     TOTAL BUDGET PRINTOUT FLAG = 0
 CELL-BY-CELL FLOW TERM FLAG = 0
 REUSING PREVIOUS VALUES OF IOFLG
     4 CALLS TO PCG ROUTINE FOR TIME STEP  36 IN STRESS PERIOD    5
    16 TOTAL ITERATIONS
 
 SOLVING FOR HEAD 


Solver Convergence Information:
                              HClose:  3.1498323E-5
                              RClose:  0.8266898
                           L2-RClose:  1.1532647
                         Rel-Vol-Err:  1.2374819E-9
 

 HEAD/DRAWDOWN PRINTOUT FLAG = 0     TOTAL BUDGET PRINTOUT FLAG = 0
 CELL-BY-CELL FLOW TERM FLAG = 0
 REUSING PREVIOUS VALUES OF IOFLG
     4 CALLS TO PCG ROUTINE FOR TIME STEP  37 IN STRESS PERIOD    5
    15 TOTAL ITERATIONS
 
 SOLVING FOR HEAD 


Solver Convergence Information:
                              HClose:  3.1022799E-5
                              RClose:  0.8085731
                           L2-RClose:  1.1327485
                         Rel-Vol-Err:  1.2307493E-9
 

 HEAD/DRAWDOWN PRINTOUT FLAG = 0     TOTAL BUDGET PRINTOUT FLAG = 0
 CELL-BY-CELL FLOW TERM FLAG = 0
 REUSING PREVIOUS VALUES OF IOFLG
     4 CALLS TO PCG ROUTINE FOR TIME STEP  38 IN STRESS PERIOD    5
    15 TOTAL ITERATIONS
 
 SOLVING FOR HEAD 


Solver Convergence Information:
                              HClose:  3.0663558E-5
                              RClose:  0.7946088
                           L2-RClose:  1.1167238
                         Rel-Vol-Err:  1.2253305E-9
 

 HEAD/DRAWDOWN PRINTOUT FLAG = 0     TOTAL BUDGET PRINTOUT FLAG = 0
 CELL-BY-CELL FLOW TERM FLAG = 0
 REUSING PREVIOUS VALUES OF IOFLG
     4 CALLS TO PCG ROUTINE FOR TIME STEP  39 IN STRESS PERIOD    5
    15 TOTAL ITERATIONS
 
 SOLVING FOR HEAD 


Solver Convergence Information:
                              HClose:  3.0392792E-5
                              RClose:  0.7838199
                           L2-RClose:  1.1041458
                         Rel-Vol-Err:  1.2209070E-9
 

 HEAD/DRAWDOWN PRINTOUT FLAG = 0     TOTAL BUDGET PRINTOUT FLAG = 0
 CELL-BY-CELL FLOW TERM FLAG = 0
 REUSING PREVIOUS VALUES OF IOFLG
     4 CALLS TO PCG ROUTINE FOR TIME STEP  40 IN STRESS PERIOD    5
    15 TOTAL ITERATIONS
 
 SOLVING FOR HEAD 


Solver Convergence Information:
                              HClose:  3.0180157E-5
                              RClose:  0.7751736
                           L2-RClose:  1.0938951
                         Rel-Vol-Err:  1.2171113E-9
 

 HEAD/DRAWDOWN PRINTOUT FLAG = 0     TOTAL BUDGET PRINTOUT FLAG = 0
 CELL-BY-CELL FLOW TERM FLAG = 0
 REUSING PREVIOUS VALUES OF IOFLG
     4 CALLS TO PCG ROUTINE FOR TIME STEP  41 IN STRESS PERIOD    5
    15 TOTAL ITERATIONS
 
 SOLVING FOR HEAD 


Solver Convergence Information:
                              HClose:  3.0004340E-5
                              RClose:  0.7679455
                           L2-RClose:  1.0851821
                         Rel-Vol-Err:  1.2136794E-9
 

 HEAD/DRAWDOWN PRINTOUT FLAG = 0     TOTAL BUDGET PRINTOUT FLAG = 0
 CELL-BY-CELL FLOW TERM FLAG = 0
 REUSING PREVIOUS VALUES OF IOFLG
     4 CALLS TO PCG ROUTINE FOR TIME STEP  42 IN STRESS PERIOD    5
    15 TOTAL ITERATIONS
 
 SOLVING FOR HEAD 


Solver Convergence Information:
                              HClose:  2.9850859E-5
                              RClose:  0.7616418
                           L2-RClose:  1.0774661
                         Rel-Vol-Err:  1.2104274E-9
 

 HEAD/DRAWDOWN PRINTOUT FLAG = 0     TOTAL BUDGET PRINTOUT FLAG = 0
 CELL-BY-CELL FLOW TERM FLAG = 0
 REUSING PREVIOUS VALUES OF IOFLG
     4 CALLS TO PCG ROUTINE FOR TIME STEP  43 IN STRESS PERIOD    5
    15 TOTAL ITERATIONS
 
 SOLVING FOR HEAD 


Solver Convergence Information:
                              HClose:  2.9710017E-5
                              RClose:  0.7559295
                           L2-RClose:  1.0703804
                         Rel-Vol-Err:  1.2072289E-9
 

 HEAD/DRAWDOWN PRINTOUT FLAG = 0     TOTAL BUDGET PRINTOUT FLAG = 0
 CELL-BY-CELL FLOW TERM FLAG = 0
 REUSING PREVIOUS VALUES OF IOFLG
     4 CALLS TO PCG ROUTINE FOR TIME STEP  44 IN STRESS PERIOD    5
    15 TOTAL ITERATIONS
 
 SOLVING FOR HEAD 


Solver Convergence Information:
                              HClose:  2.9575365E-5
                              RClose:  0.7505846
                           L2-RClose:  1.0636770
                         Rel-Vol-Err:  1.2039974E-9
 

 HEAD/DRAWDOWN PRINTOUT FLAG = 0     TOTAL BUDGET PRINTOUT FLAG = 0
 CELL-BY-CELL FLOW TERM FLAG = 0
 REUSING PREVIOUS VALUES OF IOFLG
     4 CALLS TO PCG ROUTINE FOR TIME STEP  45 IN STRESS PERIOD    5
    15 TOTAL ITERATIONS
 
 SOLVING FOR HEAD 


Solver Convergence Information:
                              HClose:  2.9442620E-5
                              RClose:  0.7454554
                           L2-RClose:  1.0571872
                         Rel-Vol-Err:  1.2006735E-9
 

 HEAD/DRAWDOWN PRINTOUT FLAG = 0     TOTAL BUDGET PRINTOUT FLAG = 0
 CELL-BY-CELL FLOW TERM FLAG = 0
 REUSING PREVIOUS VALUES OF IOFLG
     4 CALLS TO PCG ROUTINE FOR TIME STEP  46 IN STRESS PERIOD    5
    15 TOTAL ITERATIONS
 
 SOLVING FOR HEAD 


Solver Convergence Information:
                              HClose:  2.9308943E-5
                              RClose:  0.7404385
                           L2-RClose:  1.0507954
                         Rel-Vol-Err:  1.1972165E-9
 

 HEAD/DRAWDOWN PRINTOUT FLAG = 0     TOTAL BUDGET PRINTOUT FLAG = 0
 CELL-BY-CELL FLOW TERM FLAG = 0
 REUSING PREVIOUS VALUES OF IOFLG
     4 CALLS TO PCG ROUTINE FOR TIME STEP  47 IN STRESS PERIOD    5
    15 TOTAL ITERATIONS
 
 SOLVING FOR HEAD 


Solver Convergence Information:
                              HClose:  2.9172456E-5
                              RClose:  0.7354631
                           L2-RClose:  1.0444220
                         Rel-Vol-Err:  1.1935982E-9
 

 HEAD/DRAWDOWN PRINTOUT FLAG = 0     TOTAL BUDGET PRINTOUT FLAG = 0
 CELL-BY-CELL FLOW TERM FLAG = 0
 REUSING PREVIOUS VALUES OF IOFLG
     4 CALLS TO PCG ROUTINE FOR TIME STEP  48 IN STRESS PERIOD    5
    15 TOTAL ITERATIONS
 
 SOLVING FOR HEAD 


Solver Convergence Information:
                              HClose:  6.7881164E-5
                              RClose:  0.8675033
                           L2-RClose:  1.4601275
                         Rel-Vol-Err:  7.6446846E-10
 

 HEAD/DRAWDOWN PRINTOUT FLAG = 0     TOTAL BUDGET PRINTOUT FLAG = 0
 CELL-BY-CELL FLOW TERM FLAG = 0
 REUSING PREVIOUS VALUES OF IOFLG
     4 CALLS TO PCG ROUTINE FOR TIME STEP  49 IN STRESS PERIOD    5
    17 TOTAL ITERATIONS
 
 SOLVING FOR HEAD 


Solver Convergence Information:
                              HClose:  3.5964577E-5
                              RClose:  0.4422274
                           L2-RClose:  0.5965931
                         Rel-Vol-Err:  3.0843786E-10
 

 HEAD/DRAWDOWN PRINTOUT FLAG = 1     TOTAL BUDGET PRINTOUT FLAG = 1
 CELL-BY-CELL FLOW TERM FLAG = 1
 REUSING PREVIOUS VALUES OF IOFLG
     4 CALLS TO PCG ROUTINE FOR TIME STEP  50 IN STRESS PERIOD    5
    15 TOTAL ITERATIONS
1
              HEAD IN LAYER   1 AT END OF TIME STEP  50 IN STRESS PERIOD    5
  ---------------------------------------------------------------------------

              1             2             3             4             5             6             7             8             9
             10            11            12            13            14
 ..............................................................................................................................
   1    176.891       176.471       175.678       174.616       173.197       171.481       169.739       167.654       165.162    
        162.459       159.052       154.539       148.424       139.000    
   2    176.633       176.140       175.191       174.165       172.609       170.534       169.066       166.966       164.150    
        161.774       158.418       153.674       147.715       138.000    
   3    176.171       175.521       173.960       173.379       171.562       167.825       167.912       165.793       161.288    
        160.600       157.361       151.472       146.620       137.000    
   4    175.624       175.006       173.885       172.871       171.279       169.104       167.702       165.594       162.689    
        160.384       157.002       152.105       146.087       136.000    
   5    174.930       174.167       172.776       171.976       170.500       168.362       166.981       164.879       161.966    
        159.644       156.182       151.102       145.171       135.000    
   6    174.191       173.065       170.019       170.727       169.267       165.566       165.731       163.618       159.047    
        158.353       154.856       147.895       143.826       134.000    
   7    173.725       172.858       171.317       170.505       169.011       166.823       165.405       163.278       160.352    
        158.036       154.556       149.412       143.435       133.000    
   8    173.278       172.383       170.782       169.885       168.285       165.986       164.483       162.308       159.372    
        157.077       153.631       148.515       142.536       132.000    
   9    172.875       171.662       168.414       168.865       167.059       162.958       162.863       160.599       155.963    
        155.381       152.000       145.098       141.095       131.000    
  10    172.830       171.937       170.245       168.910       166.757       163.900       161.877       159.499       156.634    
        154.406       151.187       146.412       140.558       130.000    
  11    172.871       172.107       170.638       168.652       165.862       162.458       159.612       157.088       154.642    
        152.250       149.311       145.267       139.392       129.000    
  12    172.911       172.153       170.590       168.068       164.160       158.636       154.960       152.353       150.194    
        148.054       145.596       142.256       137.214       128.000    
  13    172.976       172.208       170.556       167.640       162.260       149.999       145.915       143.655       142.134    
        140.461       138.837       136.474       133.272       127.000    
  14    173.099       172.370       170.838       168.317       164.441       158.964       155.253       152.567       150.302    
        148.043       145.411       141.778       136.182       126.000    
  15    173.258       172.583       171.221       169.172       166.482       163.257       160.332       157.687       155.094    
        152.437       149.150       144.570       137.489       125.000    
  16    173.416       172.755       171.455       169.656       167.787       165.617       163.291       160.841       158.188    
        155.190       151.401       146.124       138.043       124.000    
  17    173.565       172.847       171.369       169.266       168.349       166.965       165.097       162.836       160.168    
        156.948       152.792       147.004       138.203       123.000    
  18    173.759       172.962       171.035       166.608       168.397       167.818       166.272       164.131       161.444    
        158.070       153.651       147.484       138.139       122.000    
  19    174.083       173.452       172.157       170.336       169.766       168.741       167.140       164.994       162.262    
        158.774       154.163       147.715       137.942       121.000    
  20    174.395       173.909       172.983       171.787       170.727       169.429       167.725       165.535       162.754    
        159.184       154.443       147.792       137.678       120.000    
  21    174.577       174.161       173.379       172.343       171.181       169.780       168.019       165.797       162.987    
        159.373       154.562       147.792       137.435       119.000    
1
              HEAD IN LAYER   2 AT END OF TIME STEP  50 IN STRESS PERIOD    5
  ---------------------------------------------------------------------------

              1             2             3             4             5             6             7             8             9
             10            11            12            13            14
 ..............................................................................................................................
   1    171.142       170.803       170.136       169.154       167.880       166.345       164.582       162.588       160.377    
        157.999       155.518       153.137       151.277       150.059    
   2    171.002       170.660       169.989       168.991       167.699       166.144       164.385       162.384       160.146    
        157.730       155.123       152.500       150.873       149.763    
   3    170.736       170.390       169.736       168.693       167.373       165.781       164.040       162.034       159.759    
        157.315       154.472       150.767       150.217       149.337    
   4    170.365       170.001       169.299       168.281       166.970       165.397       163.638       161.642       159.415    
        157.026       154.443       151.824       150.190       149.059    
   5    169.919       169.533       168.796       167.780       166.469       164.893       163.135       161.151       158.960    
        156.653       154.235       151.874       150.001       148.740    
   6    169.443       169.029       168.242       167.227       165.896       164.282       162.536       160.558       158.371    
        156.142       153.808       151.502       149.604       148.304    
   7    168.985       168.563       167.768       166.697       165.327       163.698       161.905       159.919       157.769    
        155.553       153.267       151.022       149.090       147.760    
   8    168.555       168.112       167.276       166.148       164.712       163.017       161.174       159.164       157.017    
        154.826       152.577       150.364       148.446       147.116    
   9    168.176       167.698       166.786       165.595       164.058       162.239       160.335       158.285       156.114    
        153.971       151.762       149.567       147.706       146.401    
  10    167.884       167.389       166.439       165.118       163.436       161.485       159.433       157.334       155.194    
        153.065       150.915       148.808       146.962       145.666    
  11    167.674       167.158       166.147       164.684       162.809       160.632       158.375       156.243       154.145    
        152.069       150.001       147.990       146.200       144.940    
  12    167.548       167.008       165.934       164.334       162.228       159.707       157.091       155.046       153.034    
        151.052       149.086       147.178       145.475       144.284    
  13    167.516       166.965       165.858       164.180       161.900       158.967       155.414       154.042       152.129    
        150.268       148.406       146.570       144.928       143.795    
  14    167.582       167.041       165.961       164.342       162.197       159.594       156.805       154.445       152.005    
        150.301       148.499       146.610       144.842       143.572    
  15    167.728       167.214       166.196       164.699       162.765       160.459       157.897       155.086       151.287    
        150.622       148.936       146.932       144.980       143.544    
  16    167.929       167.444       166.493       165.121       163.395       161.347       159.035       156.500       153.804    
        151.813       149.675       147.400       145.224       143.627    
  17    168.159       167.697       166.798       165.521       163.980       162.147       160.041       157.712       155.252    
        152.871       150.405       147.874       145.490       143.749    
  18    168.400       167.960       167.099       165.874       164.494       162.817       160.849       158.629       156.213    
        153.673       151.003       148.276       145.719       143.858    
  19    168.636       168.229       167.438       166.321       164.979       163.363       161.459       159.283       156.864    
        154.237       151.439       148.572       145.885       143.929    
  20    168.825       168.446       167.709       166.658       165.341       163.748       161.869       159.706       157.273    
        154.594       151.718       148.760       145.982       143.954    
  21    168.931       168.566       167.856       166.834       165.531       163.946       162.075       159.914       157.471    
        154.767       151.853       148.848       146.021       143.948    

 HEAD WILL BE SAVED ON UNIT   89 AT END OF TIME STEP    50 IN STRESS PERIOD      5



  -------------------------------------------------------------------------------------
  VOLUMETRIC BUDGET FOR ENTIRE MODEL AT END OF TIME STEP   50 IN STRESS PERIOD      5
  -------------------------------------------------------------------------------------

     CUMULATIVE VOLUMES      L**3       RATES FOR THIS TIME STEP      L**3/T
     ------------------                 ------------------------

           IN:                                      IN:
           ---                                      ---
             STORAGE =   497520022.6910               STORAGE =           0.0000
       CONSTANT HEAD =           0.0000         CONSTANT HEAD =           0.0000
              DRAINS =           0.0000                DRAINS =           0.0000
            RECHARGE =       2.7335E+12              RECHARGE =     4777500.0000
                 MNW = 10113361776.6542                   MNW =        3336.0447

            TOTAL IN =       2.7441E+12              TOTAL IN =     4780836.0447

          OUT:                                     OUT:
          ----                                     ----
             STORAGE =  1204804842.4769               STORAGE =     1058233.7570
       CONSTANT HEAD =       1.4651E+12         CONSTANT HEAD =     1685862.8266
              DRAINS =798518991722.7423                DRAINS =      947453.5497
            RECHARGE =           0.0000              RECHARGE =           0.0000
                 MNW =479354909605.6608                   MNW =     1089286.0447

           TOTAL OUT =       2.7441E+12             TOTAL OUT =     4780836.1779

            IN - OUT =      299714.4224              IN - OUT =          -0.1333

 PERCENT DISCREPANCY =           0.00     PERCENT DISCREPANCY =          -0.00


          TIME SUMMARY AT END OF TIME STEP    50 IN STRESS PERIOD      5
                    SECONDS     MINUTES      HOURS       DAYS        YEARS
                    -----------------------------------------------------------
   TIME STEP LENGTH 1.26161E+06  21027.      350.45      14.602     3.99781E-02
 STRESS PERIOD TIME 6.30806E+07 1.05134E+06  17522.      730.10      1.9989    
         TOTAL TIME 8.64838E+10 1.44140E+09 2.40233E+07 1.00097E+06  2740.5    
 

 Final Remark:

   The solver successfully met the user supplied convergence criteria, HCLOSE and RCLOSE, for all 110 time steps.

   Please check the "VOLUMETRIC BUDGET FOR ENTIRE MODEL" to ensure that mass rate balance errors are acceptable for all time steps.

   The cumulative mass error for the entire simulation is 0.00 %




 Simulation finished at  


 Which had an elapsed run time of: 0.0 seconds


    OneWater Simulation Now Complete


