
      MMMMMMM                                       MM      MMM     MM
    MMM     MMM    MM      M   MMMMMMMM             LM     DM M     ML     MM     MMMMMMMMM  MMMMMMMM  MMMMMMMM
   MM         MM   MMM     M   MM                    MM    MM M     M     MMMM        M      M         MM     NM
   MM         MM   MM M    M   MM                    MM    M  MM   MM    MM  MM       M      M         MM      M
   MM         MM   MM  M   M   MMMMMMMM               MN  MM   M   MM   MM    MM      M      MMMMMMM   MMMMMMMMM
   MM         MM   MM   M  M   MM         MMMMMMM     MM  M    MM MM    MMMMMMMM      M      M         MM   MM
   MM         MM   MM    M M   MM                     LM MM    NM MM   MM      MM     M      M         MM    MM
    MM       NM    MM     MM   MM                      M M      M M   MN        MM    M      M         MM     MM
     MMMMMMMMN     MM      M   MMMMMMMM                7MM      7MM  MN          MM   M      MMMMMMMM  MM      MM


 MODFLOW-OWHM v2.0.01  


                        MODFLOW
            ONE-WATER HYDROLOGIC-FLOW MODEL

    U.S. GEOLOGICAL SURVEY MODULAR FINITE-DIFFERENCE 
           CONJUNCTIVE USE SIMULATION PROGRAM

                     Version 2.0

 Release: 01          4/23/2020

 Includes:
          MODFLOW-2005 Version 1.12.0   02/03/2017
          MODFLOW-FMP  Version 4.00.0   04/23/2017
          MODFLOW-SWR  Version 1.04.0   09/15/2016
          MODFLOW-SWI  Version 2.00.0   07/22/2013
          MODFLOW-LGR  Version 2.00.0   09/19/2013
          MODFLOW-NWT  Version 1.2.0    03/01/2020
          MODFLOW-CFP  Version 1.09.57  09/12/2017


 OneWater Simulation Initiated at 


 LIST FILE: ./output/UZFtest2.lst
      UNIT: 9

OPENING DATA FILES [DATA AND DATA(BINARY)]

OPENED DATA FILE ON UNIT     58 WITH FILENAME OF: ./output/UZFtest2hd.out
OPENED DATA FILE ON UNIT     61 WITH FILENAME OF: ./output/UZFtest2.uzfot
OPENED DATA FILE ON UNIT     65 WITH FILENAME OF: ./output/UZFtest2.uzf1
OPENED DATA FILE ON UNIT     66 WITH FILENAME OF: ./output/UZFtest2.uzf2
OPENED DATA FILE ON UNIT     67 WITH FILENAME OF: ./output/UZFtest2.uzf3
OPENED DATA FILE ON UNIT     68 WITH FILENAME OF: ./output/UZFtest2.uzf4
OPENED DATA FILE ON UNIT     81 WITH FILENAME OF: ./output/UZFtest2.flw
OPENED DATA FILE ON UNIT     83 WITH FILENAME OF: ./output/UZFtest2.sg1
OPENED DATA FILE ON UNIT     84 WITH FILENAME OF: ./output/UZFtest2.sg2
OPENED DATA FILE ON UNIT     85 WITH FILENAME OF: ./output/UZFtest2.sg3
OPENED DATA FILE ON UNIT     86 WITH FILENAME OF: ./output/UZFtest2.sg4
OPENED DATA FILE ON UNIT     87 WITH FILENAME OF: ./output/UZFtest2.sg5
OPENED DATA FILE ON UNIT     88 WITH FILENAME OF: ./output/UZFtest2.sg6
OPENED DATA FILE ON UNIT     89 WITH FILENAME OF: ./output/UZFtest2.sg7
OPENED DATA FILE ON UNIT     90 WITH FILENAME OF: ./output/UZFtest2.sg8
OPENED DATA FILE ON UNIT     91 WITH FILENAME OF: ./output/UZFtest2dv.sg9

OPENING PACKAGES

BAS6 PACKAGE OPENED.
LPF  PACKAGE OPENED.
DIS  PACKAGE OPENED.
SIP  PACKAGE OPENED.
OC   PACKAGE OPENED.
SFR  PACKAGE OPENED.
WEL  PACKAGE OPENED.
GHB  PACKAGE OPENED.
UZF  PACKAGE OPENED.
GAGE PACKAGE OPENED.

NOTIFICATION: A FILE UNIT NUMBER WAS FOUND FOR EITHER THE LIST FILE OR A PACAKGE.
IT WILL BE USED EVEN THOUGH UNIT NUMBERS FOR THE LIST FILE AND PACKAGES ARE NOW OPTIONAL.
[IT IS RECOMMENDED TO STILL USE A UNIT NUMBER FOR DATA and DATA(BINARY) ]


 BAS -- BASIC PACKAGE, VERSION OWHM INPUT READ FROM UNIT    75
 
MODFLOW was compiled using uniform precision (Precision => Number of meaningful digits in numbers)
Precision of REAL and DOUBLE PRECISION variables: 15

 DISCRETIZATION INPUT DATA READ FROM UNIT    8

-- READING DIS PACKAGE INPUT --

# UZFtest2
# MODFLOW-2005 Example problem documented in:
#   Harbaugh, A.W., 2005, MODFLOW-2005, the U.S. Geological Survey modular ground-water model -- the Ground-Water Flow Process: U.S. Geological Survey Techniques and Methods 6-A16.
#   Harbaugh, A.W., Banta, E.R., Hill, M.C. and McDonald, M.G., 2000, MODFLOW-2000, The U.S. Geological Survey Modular Ground-Water Model - User Guide to Modularization Concepts and the Ground-Water Flow Process: U.S Geological Survey Open-File Report 2000-92, 121 p., https://doi.org/10.3133/ofr200092
#   Niswonger, R.G., Prudic, D.E., and Regan, R.S., 2006, Documentation of the Unsaturated-Zone Flow (UZF1) Package for modeling unsaturated flow between the land surface and the water table with MODFLOW-2005: U.S. Geological Techniques and Methods Book 6, Chapter A19, 62 p.
#
#      -Comments are preceded by a # sign
#
#-----------------------------------------------------------------------------------------------------------------------------------------------------
#Test problem 2-- Discretization input
#Example problem using the UZF1 Package


*** DIS COORDINATE SYSTEM NOT SEPECIFIED ***
DEFAULT VALUES APPLIED ARE 0° ROTATION
WITH THE ORIGIN (0,0) LOCATED AT THE MODEL'S LOWER LEFT CORNER




DIS COORDINATE SYSTEM SEPECIFIED WITH:
GRID ROTATION OF 0.0°
WITH THE ORIGIN LOCATED AT THE OUTER MOST CORNER OF MODEL CELL [15,1] WITH:
X-COORDINATE:0.0
Y-COORDINATE:0.0
    1 LAYERS        15 ROWS        10 COLUMNS
     12 STRESS PERIOD(S) IN SIMULATION
 MODEL TIME UNIT IS SECONDS
 MODEL LENGTH UNIT IS FEET
  Confining bed flag for each layer:
   0

                     DELR =   5000.00    

                     DELC =   5000.00    



           TOP ELEVATION OF LAYER 1
 READING ON UNIT    8 WITH FORMAT: (10F7.0)            

            1           2           3           4           5           6           7           8           9          10
 ........................................................................................................................
   1    1105.       1105.       0.000       0.000       0.000       0.000       0.000       0.000       0.000       0.000    
   2    1105.       1095.       1105.       0.000       0.000       1100.       1100.       1110.       0.000       0.000    
   3    0.000       1100.       1085.       1080.       1078.       1076.       1073.       1090.       0.000       0.000    
   4    1110.       1100.       1090.       1085.       1076.       1080.       1080.       1070.       1100.       0.000    
   5    1110.       1100.       1085.       1080.       1078.       1074.       1077.       1066.       1075.       1080.    
   6    1105.       1095.       1080.       1077.       1073.       1069.       1070.       1063.       1085.       1095.    
   7    1105.       1090.       1075.       1072.       1070.       1065.       1065.       1069.       1090.       0.000    
   8    0.000       1080.       1070.       1068.       1063.       1060.       1063.       1067.       1090.       0.000    
   9    0.000       1075.       1065.       1062.       1058.       1052.       1055.       1065.       1090.       0.000    
  10    0.000       1070.       1060.       1055.       1046.       1046.       1044.       1060.       1088.       1100.    
  11    0.000       1055.       1050.       1045.       1041.       1042.       1040.       1050.       1075.       0.000    
  12    1027.       1028.       1028.       1032.       1032.       1033.       1032.       1040.       1060.       0.000    
  13    997.0       1004.       1008.       1014.       1020.       1027.       1032.       1038.       1050.       0.000    
  14    0.000       1030.       1040.       1045.       1050.       1050.       1050.       1050.       1044.       0.000    
  15    0.000       0.000       1080.       1080.       1080.       1080.       0.000       0.000       0.000       0.000    



             MODEL LAYER BOTTOM EL. FOR LAYER   1
 READING ON UNIT    8 WITH FORMAT: (10F7.0)            

            1           2           3           4           5           6           7           8           9          10
 ........................................................................................................................
   1    1000.       1000.       0.000       0.000       0.000       0.000       0.000       0.000       0.000       0.000    
   2    1000.       900.0       900.0       0.000       0.000       950.0       950.0       950.0       0.000       0.000    
   3    0.000       850.0       670.0       680.0       680.0       770.0       770.0       890.0       0.000       0.000    
   4    925.0       850.0       650.0       650.0       650.0       680.0       740.0       850.0       950.0       0.000    
   5    925.0       800.0       650.0       600.0       600.0       600.0       650.0       720.0       850.0       950.0    
   6    925.0       800.0       650.0       600.0       550.0       600.0       650.0       720.0       850.0       970.0    
   7    925.0       800.0       650.0       600.0       550.0       600.0       650.0       720.0       950.0       0.000    
   8    0.000       850.0       700.0       650.0       570.0       600.0       700.0       850.0       950.0       0.000    
   9    0.000       850.0       700.0       650.0       540.0       580.0       700.0       850.0       950.0       0.000    
  10    0.000       850.0       700.0       630.0       530.0       580.0       650.0       800.0       900.0       950.0    
  11    0.000       850.0       700.0       620.0       580.0       620.0       700.0       800.0       900.0       0.000    
  12    900.0       830.0       710.0       640.0       600.0       650.0       700.0       800.0       900.0       0.000    
  13    900.0       810.0       750.0       700.0       650.0       700.0       750.0       800.0       900.0       0.000    
  14    0.000       950.0       850.0       850.0       850.0       850.0       850.0       850.0       850.0       0.000    
  15    0.000       0.000       950.0       950.0       950.0       950.0       0.000       0.000       0.000       0.000    


 STRESS PERIOD     LENGTH       TIME STEPS     MULTIPLIER FOR DELT    SS FLAG  (OPTIONAL TIME STEP LENGTH)
 ---------------------------------------------------------------------------------------------------
        1         2628000.          1                  1.00000         SS
        2         2628000.         15                  1.10000         TR
        3         2628000.         15                  1.10000         TR
        4         2628000.         15                  1.10000         TR
        5         2628000.         15                  1.10000         TR
        6         2628000.         15                  1.10000         TR
        7         2628000.         15                  1.10000         TR
        8         2628000.         15                  1.10000         TR
        9         2628000.         15                  1.10000         TR
       10         2628000.         15                  1.10000         TR
       11         2628000.         15                  1.10000         TR
       12         2628000.         15                  1.10000         TR

 COMBINED STEADY-STATE AND TRANSIENT SIMULATION




-- READING BAS PACKAGE INPUT --

# UZFtest2
# MODFLOW-2005 Example problem documented in:
#   Harbaugh, A.W., 2005, MODFLOW-2005, the U.S. Geological Survey modular ground-water model -- the Ground-Water Flow Process: U.S. Geological Survey Techniques and Methods 6-A16.
#   Harbaugh, A.W., Banta, E.R., Hill, M.C. and McDonald, M.G., 2000, MODFLOW-2000, The U.S. Geological Survey Modular Ground-Water Model - User Guide to Modularization Concepts and the Ground-Water Flow Process: U.S Geological Survey Open-File Report 2000-92, 121 p., https://doi.org/10.3133/ofr200092
#   Niswonger, R.G., Prudic, D.E., and Regan, R.S., 2006, Documentation of the Unsaturated-Zone Flow (UZF1) Package for modeling unsaturated flow between the land surface and the water table with MODFLOW-2005: U.S. Geological Techniques and Methods Book 6, Chapter A19, 62 p.
#
# Input modified for MODFLOW-OWHM by including the BAS options:
#     BUDGETDB ./output/UZFtest2_VolumetricBudget.txt  CUMULATIVE_HEAD_CHANGE ./output/UZFtest2_CumHCHG.txt  PRINT_HEAD NPER ./output/UZFtest2_Head.txt
#
#-----------------------------------------------------------------------------------------------------------------------------------------------------
#Test Simulation 2-- Example problem using the UZF1 Package
#Modified from example Problem 1 of SFR1 documentation report


 THE BAS PACKAGE NOW DEFAULTS TO FREE FORMAT.
 USE OPTION "NOFREE" TO DISABLE FREE FORMAT.



########################################################################################################

                           WARNING_MESSAGE

         THE FOLLOWING COMMENTS WERE PASSED TO THE WARNING ROUTINE

THE WARNING IS BELIEVED TO HAVE ORIGINATED FROM THE FOLLOWING FILE:
"examples\mf-2005\UZFtest2.ba6"

THE GUESSED LINE THAT THE WARNING OCCURED ON IS:
"FREE  BUDGETDB ./output/UZFtest2_VolumetricBudget.txt  CUMULATIVE_HEAD_CHANGE ./output/UZFtest2_CumHCHG.txt  PRINT_HEAD NPER ./output/UZFtest2_Head.txt"

THE DESRIPTION OF THE WARNING IS:

FOUND BAS PACKAGE OPTION KEYWORDS ALONG PACKAGE "OPTIONS LINE" (ie Data Set 1)

The BAS package options should be within an "OPTIONS BLOCK" rather than along the first line of input.

The BAS package will attempt to read the options line, but some advanced options may fail to load due to their complex input,
For example the option "SHIFT_STRT" uses ULOAD to read NLAY shift values, which would crash under certain ULOAD keyword combinations.

Also note that if any of the options specify a GENERIC_OUTPUT file, 
then there may be additional warnings about a BAS OPTION not being a recognized GENERIC_OUTPUT post-keyword.
These warnings can be ignored, since its a post-keyword warning pertaining to the GENERIC_OUTPUT file and 
the BAS OPTION is still processed by the BAS package.

It is recommended for new models to use "BEGIN OPTIONS" and then have one option per line and
end the options block with the word "END" in place of single line of options.

For example:

BEGIN OPTIONS

  START_DATE  4/23/1901
  SHOWPROGRESS
  NOCBC
  BUDGETDB ./output/VolumetricBudget.txt
  PAUSE

END OPTIONS

             - Note that "OPTIONS BLOCK" maybe empty or entirely not present,
               nor is it required to specify an "OPTIONS LINE"

             - DO NOT specify both an "OPTIONS BLOCK" and "OPTIONS LINE" at the same time.

########################################################################################################



 NOW READING BAS OPTIONS

 FOUND OPTION: FREE
    THE FREE FORMAT OPTION HAS BEEN SELECTED
         -NOTE THIS NOW IS THE DEFAULT AND NOT NECESSARY.

 FOUND OPTION: BUDGETDB


########################################################################################################

                           WARNING_MESSAGE

         THE FOLLOWING COMMENTS WERE PASSED TO THE WARNING ROUTINE

THE WARNING IS BELIEVED TO HAVE ORIGINATED FROM THE FOLLOWING FILE:
"examples\mf-2005\UZFtest2.ba6"

THE GUESSED LINE THAT THE WARNING OCCURED ON IS:
"FREE  BUDGETDB ./output/UZFtest2_VolumetricBudget.txt  CUMULATIVE_HEAD_CHANGE ./output/UZFtest2_CumHCHG.txt  PRINT_HEAD NPER ./output/UZFtest2_Head.txt"

THE DESRIPTION OF THE WARNING IS:

...CHECK_FOR_POST_KEY WARNINGS...
 THE FOLLOWING MESSAGES WERE PASSED WHILE CHECKING FOR ANY ADDITIONAL KEYWORDS ON LOADED LINE.


FAILED TO IDENTIFY THE FOLLOWING POST-KEYWORD: 

"CUMULATIVE_HEAD_CHANGE"

IT WILL BE IGNORED AND NO FURTHER KEYWORDS WILL BE CHECKED/INCLUDED TO THE RIGHT OF IT.
TO SUPRESS THIS WARNING PLEASE PLACE A "#" SYMBOL TO THE LEFT OF THE WORD TO INDICATE EVERYTHING TO THE RIGHT OF THE # IS A COMMENT

########################################################################################################



 FOUND OPTION: CUMULATIVE_HEAD_CHANGE
    THIS OPTION IS ONLY USEFUL FOR MODEL RESULT COMPARISON WITH DIFFERENT CODE COMPARISONS.



########################################################################################################

                           WARNING_MESSAGE

         THE FOLLOWING COMMENTS WERE PASSED TO THE WARNING ROUTINE

THE WARNING IS BELIEVED TO HAVE ORIGINATED FROM THE FOLLOWING FILE:
"examples\mf-2005\UZFtest2.ba6"

THE GUESSED LINE THAT THE WARNING OCCURED ON IS:
"FREE  BUDGETDB ./output/UZFtest2_VolumetricBudget.txt  CUMULATIVE_HEAD_CHANGE ./output/UZFtest2_CumHCHG.txt  PRINT_HEAD NPER ./output/UZFtest2_Head.txt"

THE DESRIPTION OF THE WARNING IS:

...CHECK_FOR_POST_KEY WARNINGS...
 THE FOLLOWING MESSAGES WERE PASSED WHILE CHECKING FOR ANY ADDITIONAL KEYWORDS ON LOADED LINE.


FAILED TO IDENTIFY THE FOLLOWING POST-KEYWORD: 

"PRINT_HEAD"

IT WILL BE IGNORED AND NO FURTHER KEYWORDS WILL BE CHECKED/INCLUDED TO THE RIGHT OF IT.
TO SUPRESS THIS WARNING PLEASE PLACE A "#" SYMBOL TO THE LEFT OF THE WORD TO INDICATE EVERYTHING TO THE RIGHT OF THE # IS A COMMENT

########################################################################################################



 FOUND OPTION: PRINT_HEAD    SP    TS   FILE
                             12    15   ./output/UZFtest2_Head.txt

 THE MAX STORAGE FOR PROPERTIES DEFINED BY PARAMETERS IS: 
 MAX STORAGE OF PARAMETERS (MXPAR)  IS       2000
 MAX STORAGE OF INSTANCES  (MXINST) IS      50000
 MAX STORAGE OF CLUSTERS   (MXCLST) IS    2000000




                     BOUNDARY ARRAY FOR LAYER   1
 READING ON UNIT   75 WITH FORMAT: (20I4)              

                1           2           3           4           5           6           7           8           9          10
 ............................................................................................................................
   1            1           1           0           0           0           0           0           0           0           0
   2            1           1           1           0           0           1           1           1           0           0
   3            0           1           1           1           1           1           1           1           0           0
   4            1           1           1           1           1           1           1           1           1           0
   5            1           1           1           1           1           1           1           1           1           1
   6            1           1           1           1           1           1           1           1           1           1
   7            1           1           1           1           1           1           1           1           1           0
   8            0           1           1           1           1           1           1           1           1           0
   9            0           1           1           1           1           1           1           1           1           0
  10            0           1           1           1           1           1           1           1           1           1
  11            0           1           1           1           1           1           1           1           1           0
  12            1           1           1           1           1           1           1           1           1           0
  13            1           1           1           1           1           1           1           1           1           0
  14            0           1           1           1           1           1           1           1           1           0
  15            0           0           1           1           1           1           0           0           0           0

 AQUIFER HEAD WILL BE SET TO 6999.0 AT ALL NO-FLOW NODES (IBOUND=0).




                       INITIAL HEAD FOR LAYER   1
 READING ON UNIT   75 WITH FORMAT: (10F8.0)            

            1           2           3           4           5           6           7           8           9          10
 ........................................................................................................................
   1    1093.       1089.       6999.       6999.       6999.       6999.       6999.       6999.       6999.       6999.    
   2    1090.       1087.       1081.       6999.       6999.       1072.       1071.       1071.       6999.       6999.    
   3    6999.       1079.       1078.       1074.       1072.       1071.       1069.       1068.       6999.       6999.    
   4    1069.       1071.       1070.       1067.       1065.       1064.       1064.       1066.       1066.       6999.    
   5    1065.       1064.       1063.       1062.       1061.       1061.       1060.       1062.       1066.       1068.    
   6    1060.       1058.       1057.       1056.       1056.       1057.       1057.       1059.       1062.       1066.    
   7    1056.       1053.       1052.       1051.       1051.       1052.       1053.       1055.       1056.       6999.    
   8    6999.       1046.       1046.       1046.       1046.       1046.       1048.       1050.       1050.       6999.    
   9    6999.       1039.       1039.       1039.       1040.       1041.       1042.       1043.       1044.       6999.    
  10    6999.       1031.       1032.       1033.       1034.       1035.       1037.       1038.       1039.       1042.    
  11    6999.       1021.       1023.       1027.       1029.       1030.       1032.       1034.       1036.       6999.    
  12    1001.       1009.       1015.       1020.       1023.       1026.       1029.       1030.       1034.       6999.    
  13    994.5      1000.0       1007.       1013.       1019.       1024.       1029.       1034.       1036.       6999.    
  14    6999.       1004.       1009.       1014.       1019.       1024.       1029.       1035.       1039.       6999.    
  15    6999.       6999.       1012.       1015.       1019.       1022.       6999.       6999.       6999.       6999.    

-- READING OC PACKAGE INPUT --

# UZFtest2
# MODFLOW-2005 Example problem documented in:
#   Harbaugh, A.W., 2005, MODFLOW-2005, the U.S. Geological Survey modular ground-water model -- the Ground-Water Flow Process: U.S. Geological Survey Techniques and Methods 6-A16.
#   Harbaugh, A.W., Banta, E.R., Hill, M.C. and McDonald, M.G., 2000, MODFLOW-2000, The U.S. Geological Survey Modular Ground-Water Model - User Guide to Modularization Concepts and the Ground-Water Flow Process: U.S Geological Survey Open-File Report 2000-92, 121 p., https://doi.org/10.3133/ofr200092
#   Niswonger, R.G., Prudic, D.E., and Regan, R.S., 2006, Documentation of the Unsaturated-Zone Flow (UZF1) Package for modeling unsaturated flow between the land surface and the water table with MODFLOW-2005: U.S. Geological Techniques and Methods Book 6, Chapter A19, 62 p.
#
#-----------------------------------------------------------------------------------------------------------------------------------------------------


 OUTPUT CONTROL IS SPECIFIED ONLY AT TIME STEPS FOR WHICH OUTPUT IS DESIRED
 HEADS WILL BE SAVED WITH FORMAT: (10F10.3)           
 SAVED HEADS WILL BE LABELED
 HEAD PRINT FORMAT CODE IS   4    DRAWDOWN PRINT FORMAT CODE IS   0
 HEADS WILL BE SAVED ON UNIT   58    DRAWDOWNS WILL BE SAVED ON UNIT    0  WATER BUDGETs WILL BE SAVED ON UNIT 

 LPF -- LAYER-PROPERTY FLOW PACKAGE, VERSION OWHM
         INPUT READ FROM UNIT    7

-- READING LPF PACKAGE INPUT --

# UZFtest2
# MODFLOW-2005 Example problem documented in:
#   Harbaugh, A.W., 2005, MODFLOW-2005, the U.S. Geological Survey modular ground-water model -- the Ground-Water Flow Process: U.S. Geological Survey Techniques and Methods 6-A16.
#   Harbaugh, A.W., Banta, E.R., Hill, M.C. and McDonald, M.G., 2000, MODFLOW-2000, The U.S. Geological Survey Modular Ground-Water Model - User Guide to Modularization Concepts and the Ground-Water Flow Process: U.S Geological Survey Open-File Report 2000-92, 121 p., https://doi.org/10.3133/ofr200092
#   Niswonger, R.G., Prudic, D.E., and Regan, R.S., 2006, Documentation of the Unsaturated-Zone Flow (UZF1) Package for modeling unsaturated flow between the land surface and the water table with MODFLOW-2005: U.S. Geological Techniques and Methods Book 6, Chapter A19, 62 p.
#
#      -Comments are preceded by a # sign
#
#-----------------------------------------------------------------------------------------------------------------------------------------------------
#Layer-Property Flow Package input for test simulation 2

 HEAD AT CELLS THAT CONVERT TO DRY=  0.00000E+00
 No named parameters

   LAYER FLAGS:
 LAYER       LAYTYP        LAYAVG         CHANI        LAYVKA        LAYWET
 ---------------------------------------------------------------------------
    1             1             0     1.000E+00             0             0

   INTERPRETATION OF LAYER FLAGS:
                        INTERBLOCK     HORIZONTAL    DATA IN
         LAYER TYPE   TRANSMISSIVITY   ANISOTROPY   ARRAY VKA   WETTABILITY
 LAYER      (LAYTYP)      (LAYAVG)       (CHANI)      (LAYVKA)      (LAYWET)
 ---------------------------------------------------------------------------
    1   CONVERTIBLE      HARMONIC     1.000E+00    VERTICAL K  NON-WETTABLE

 WETTING CAPABILITY IS NOT ACTIVE IN ANY LAYER



              HYD. COND. ALONG ROWS FOR LAYER   1
 READING ON UNIT    7 WITH FORMAT: (10F5.0)            

            1           2           3           4           5           6           7           8           9          10
 ........................................................................................................................
   1   0.2000E-02  0.2000E-02   0.000       0.000       0.000       0.000       0.000       0.000       0.000       0.000    
   2   0.4000E-03  0.2000E-02  0.2000E-02   0.000       0.000      0.4000E-03  0.4000E-03  0.4000E-03   0.000       0.000    
   3    0.000      0.4000E-03  0.2000E-02  0.2000E-02  0.4000E-03  0.4000E-03  0.4000E-03  0.4000E-03   0.000       0.000    
   4   0.4000E-03  0.4000E-03  0.4000E-03  0.2000E-02  0.2000E-02  0.2000E-02  0.4000E-03  0.4000E-03  0.4000E-03   0.000    
   5   0.4000E-03  0.4000E-03  0.4000E-03  0.2000E-02  0.2000E-02  0.2000E-02  0.2000E-02  0.2000E-02  0.2000E-02  0.2000E-02
   6   0.4000E-03  0.4000E-03  0.4000E-03  0.2000E-02  0.2000E-02  0.2000E-02  0.2000E-02  0.2000E-02  0.4000E-03  0.4000E-03
   7   0.4000E-03  0.4000E-03  0.4000E-03  0.2000E-02  0.2000E-02  0.2000E-02  0.2000E-02  0.2000E-02  0.4000E-03   0.000    
   8    0.000      0.4000E-03  0.4000E-03  0.2000E-02  0.2000E-02  0.2000E-02  0.2000E-02  0.4000E-03  0.4000E-03   0.000    
   9    0.000      0.4000E-03  0.4000E-03  0.2000E-02  0.2000E-02  0.2000E-02  0.2000E-02  0.4000E-03  0.4000E-03   0.000    
  10    0.000      0.4000E-03  0.4000E-03  0.2000E-02  0.2000E-02  0.2000E-02  0.2000E-02  0.4000E-03  0.4000E-03  0.4000E-03
  11    0.000      0.4000E-03  0.4000E-03  0.2000E-02  0.2000E-02  0.2000E-02  0.2000E-02  0.4000E-03  0.4000E-03   0.000    
  12   0.4000E-03  0.4000E-03  0.2000E-02  0.2000E-02  0.2000E-02  0.2000E-02  0.2000E-02  0.4000E-03  0.4000E-03   0.000    
  13   0.2000E-02  0.2000E-02  0.2000E-02  0.2000E-02  0.2000E-02  0.2000E-02  0.2000E-02  0.2000E-02  0.2000E-02   0.000    
  14    0.000      0.4000E-03  0.4000E-03  0.4000E-03  0.4000E-03  0.4000E-03  0.4000E-03  0.4000E-03  0.2000E-02   0.000    
  15    0.000       0.000      0.4000E-03  0.4000E-03  0.4000E-03  0.4000E-03   0.000       0.000       0.000       0.000    

      VERTICAL HYD. COND. =  1.000000E-06 FOR LAYER   1

         SPECIFIC STORAGE =  1.000000E-06 FOR LAYER   1



                     SPECIFIC YIELD FOR LAYER   1
 READING ON UNIT    7 WITH FORMAT: (10F5.0)            

            1           2           3           4           5           6           7           8           9          10
 ........................................................................................................................
   1   0.2000      0.2000       0.000       0.000       0.000       0.000       0.000       0.000       0.000       0.000    
   2   0.1000      0.2000      0.2000       0.000       0.000      0.1000      0.1000      0.1000       0.000       0.000    
   3    0.000      0.1000      0.2000      0.2000      0.1000      0.1000      0.1000      0.1000       0.000       0.000    
   4   0.1000      0.1000      0.1000      0.2000      0.2000      0.2000      0.1000      0.1000      0.1000       0.000    
   5   0.1000      0.1000      0.1000      0.2000      0.2000      0.2000      0.2000      0.2000      0.2000      0.2000    
   6   0.1000      0.1000      0.1000      0.2000      0.2000      0.2000      0.2000      0.2000      0.1000      0.1000    
   7   0.1000      0.1000      0.1000      0.2000      0.2000      0.2000      0.2000      0.2000      0.1000       0.000    
   8    0.000      0.1000      0.1000      0.2000      0.2000      0.2000      0.2000      0.1000      0.1000       0.000    
   9    0.000      0.1000      0.1000      0.2000      0.2000      0.2000      0.2000      0.1000      0.1000       0.000    
  10    0.000      0.1000      0.1000      0.2000      0.2000      0.2000      0.2000      0.1000      0.1000      0.1000    
  11    0.000      0.1000      0.1000      0.2000      0.2000      0.2000      0.2000      0.1000      0.1000       0.000    
  12   0.1000      0.1000      0.2000      0.2000      0.2000      0.2000      0.2000      0.1000      0.1000       0.000    
  13   0.2000      0.2000      0.2000      0.2000      0.2000      0.2000      0.2000      0.2000      0.2000       0.000    
  14    0.000      0.1000      0.1000      0.1000      0.1000      0.1000      0.1000      0.1000      0.2000       0.000    
  15    0.000       0.000      0.1000      0.1000      0.1000      0.1000       0.000       0.000       0.000       0.000    

-- READING WEL PACKAGE INPUT --

# UZFtest2
# MODFLOW-2005 Example problem documented in:
#   Harbaugh, A.W., 2005, MODFLOW-2005, the U.S. Geological Survey modular ground-water model -- the Ground-Water Flow Process: U.S. Geological Survey Techniques and Methods 6-A16.
#   Harbaugh, A.W., Banta, E.R., Hill, M.C. and McDonald, M.G., 2000, MODFLOW-2000, The U.S. Geological Survey Modular Ground-Water Model - User Guide to Modularization Concepts and the Ground-Water Flow Process: U.S Geological Survey Open-File Report 2000-92, 121 p., https://doi.org/10.3133/ofr200092
#   Niswonger, R.G., Prudic, D.E., and Regan, R.S., 2006, Documentation of the Unsaturated-Zone Flow (UZF1) Package for modeling unsaturated flow between the land surface and the water table with MODFLOW-2005: U.S. Geological Techniques and Methods Book 6, Chapter A19, 62 p.
#
#      -Comments are preceded by a # sign
#
#-----------------------------------------------------------------------------------------------------------------------------------------------------
#Well Package input for test simulation 2


WEL -- WELL PACKAGE, VERSION OWHM INPUT READ FROM UNIT 16

 No named parameters

 NO TABFILE SPECIFIED FOR PACKAGE WEL  


 NO LINEFEEDS ARE SPECIFIED FOR PACKAGE WEL  


MAXIMUM OF 10 ACTIVE WELLS AT ONE TIME

CELL-BY-CELL FLOWS WILL BE PRINTED WHEN ICBCFL NOT 0


0 Well parameters

 GHB -- GENERAL-HEAD BOUNDARY PACKAGE, VERSION OWHM
         INPUT READ FROM UNIT   17

-- READING GHB PACKAGE INPUT --

# UZFtest2
# MODFLOW-2005 Example problem documented in:
#   Harbaugh, A.W., 2005, MODFLOW-2005, the U.S. Geological Survey modular ground-water model -- the Ground-Water Flow Process: U.S. Geological Survey Techniques and Methods 6-A16.
#   Harbaugh, A.W., Banta, E.R., Hill, M.C. and McDonald, M.G., 2000, MODFLOW-2000, The U.S. Geological Survey Modular Ground-Water Model - User Guide to Modularization Concepts and the Ground-Water Flow Process: U.S Geological Survey Open-File Report 2000-92, 121 p., https://doi.org/10.3133/ofr200092
#   Niswonger, R.G., Prudic, D.E., and Regan, R.S., 2006, Documentation of the Unsaturated-Zone Flow (UZF1) Package for modeling unsaturated flow between the land surface and the water table with MODFLOW-2005: U.S. Geological Techniques and Methods Book 6, Chapter A19, 62 p.
#
#      -Comments are preceded by a # sign
#
#-----------------------------------------------------------------------------------------------------------------------------------------------------

 No named parameters

 NO TABFILE SPECIFIED FOR PACKAGE GHB  


 NO LINEFEEDS ARE SPECIFIED FOR PACKAGE GHB  

 CELL-BY-CELL FLOWS WILL BE PRINTED WHEN ICBCFL NOT 0
 MAXIMUM OF      2 ACTIVE GHB CELLS AT ONE TIME


     0 GHB parameters

-- READING SFR PACKAGE INPUT --

# UZFtest2
# MODFLOW-2005 Example problem documented in:
#   Harbaugh, A.W., 2005, MODFLOW-2005, the U.S. Geological Survey modular ground-water model -- the Ground-Water Flow Process: U.S. Geological Survey Techniques and Methods 6-A16.
#   Harbaugh, A.W., Banta, E.R., Hill, M.C. and McDonald, M.G., 2000, MODFLOW-2000, The U.S. Geological Survey Modular Ground-Water Model - User Guide to Modularization Concepts and the Ground-Water Flow Process: U.S Geological Survey Open-File Report 2000-92, 121 p., https://doi.org/10.3133/ofr200092
#   Niswonger, R.G., Prudic, D.E., and Regan, R.S., 2006, Documentation of the Unsaturated-Zone Flow (UZF1) Package for modeling unsaturated flow between the land surface and the water table with MODFLOW-2005: U.S. Geological Techniques and Methods Book 6, Chapter A19, 62 p.
#
#-----------------------------------------------------------------------------------------------------------------------------------------------------
#SFR2 Package input for Test Simulation 2


 SFR7 -- STREAMFLOW ROUTING PACKAGE, VERSION OWHM
         INPUT READ FROM UNIT   15

 NO TABFILE SPECIFIED FOR PACKAGE SFR  


 NO LINEFEEDS ARE SPECIFIED FOR PACKAGE SFR  



 NUMBER OF STREAM REACHES IS   36

 NUMBER OF STREAM SEGMENTS IS    8

 NUMBER OF STREAM PARAMETERS IS    0

 NUMBER OF STREAM SEGMENTS DEFINED USING PARAMETERS IS              0

 MAXIMUM ERROR FOR STREAM LEAKAGE RATES IS  1.00E-06

 CONSTANT FOR MANNINGS EQUATION IS  1.4860E+00

 HEAD_PREDICTOR_FACTOR (HNEW_FACTOR) IS  1.0000E+00



 STREAM OUTPUT WILL BE WRITTEN TO FILE ON UNIT   81


   STREAM NETWORK DESCRIPTION: 

   LAYER    ROW    COL   SEGMENT   REACH     LENGTH
                          NUMBER   NUMBER    IN CELL        
   --------------------------------------------------
      1      1      1       1        1    4.5000E+03
      1      2      2       1        2    7.0000E+03
      1      3      3       1        3    6.0000E+03
      1      3      4       1        4    5.5500E+03
      1      4      5       2        1    6.5000E+03
      1      5      6       2        2    5.0000E+03
      1      6      6       2        3    5.0000E+03
      1      7      6       2        4    5.0000E+03
      1      8      6       2        5    5.0000E+03
      1      3      5       3        1    5.0000E+03
      1      3      6       3        2    5.0000E+03
      1      3      7       3        3    4.5000E+03
      1      4      8       3        4    6.0000E+03
      1      5      8       3        5    5.0000E+03
      1      6      8       3        6    2.0000E+03
      1      5     10       4        1    2.5000E+03
      1      5      9       4        2    5.0000E+03
      1      6      8       4        3    3.5000E+03
      1      6      8       5        1    4.0000E+03
      1      7      7       5        2    5.0000E+03
      1      8      7       5        3    3.5000E+03
      1      8      6       5        4    2.5000E+03
      1      9      6       6        1    5.0000E+03
      1     10      7       6        2    5.0000E+03
      1     11      7       6        3    5.0000E+03
      1     12      7       6        4    5.0000E+03
      1     13      7       6        5    2.0000E+03
      1     14      9       7        1    5.0000E+03
      1     13      8       7        2    5.5000E+03
      1     13      7       7        3    5.0000E+03
      1     13      6       8        1    5.0000E+03
      1     13      5       8        2    5.0000E+03
      1     13      4       8        3    5.0000E+03
      1     13      3       8        4    5.0000E+03
      1     13      2       8        5    5.0000E+03
      1     13      1       8        6    3.0000E+03




 UZF1 -- UNSATURATED FLOW PACKAGE, VERSION OWHM
         INPUT READ FROM UNIT   19

-- READING UZF PACKAGE INPUT --

# UZFtest2
# MODFLOW-2005 Example problem documented in:
#   Harbaugh, A.W., 2005, MODFLOW-2005, the U.S. Geological Survey modular ground-water model -- the Ground-Water Flow Process: U.S. Geological Survey Techniques and Methods 6-A16.
#   Harbaugh, A.W., Banta, E.R., Hill, M.C. and McDonald, M.G., 2000, MODFLOW-2000, The U.S. Geological Survey Modular Ground-Water Model - User Guide to Modularization Concepts and the Ground-Water F
#   Niswonger, R.G., Prudic, D.E., and Regan, R.S., 2006, Documentation of the Unsaturated-Zone Flow (UZF1) Package for modeling unsaturated flow between the land surface and the water table with MODF
#
#      -Comments are preceded by a # sign
#
#-----------------------------------------------------------------------------------------------------------------------------------------------------
#UZF Package input for test simulation 2

 No named parameters



            AREAL EXTENT OF UZ FLOW
 READING ON UNIT   19 WITH FORMAT: (20I4)              

                1           2           3           4           5           6           7           8           9          10
 ............................................................................................................................
   1            1           1           0           0           0           0           0           0           0           0
   2            1           1           1           0           0           1           1           1           0           0
   3            0           1           1           1           1           1           1           1           0           0
   4            1           1           1           1           1           1           1           1           1           0
   5            1           1           1           1           1           1           1           1           1           1
   6            1           1           1           1           1           1           1           1           1           1
   7            1           1           1           1           1           1           1           1           1           0
   8            0           1           1           1           1           1           1           1           1           0
   9            0           1           1           1           1           1           1           1           1           0
  10            0           1           1           1           1           1           1           1           1           1
  11            0           1           1           1           1           1           1           1           1           0
  12            1           1           1           1           1           1           1           1           1           0
  13            1           1           1           1           1           1           1           1           1           0
  14            0           1           1           1           1           1           1           1           1           0
  15            0           0           1           1           1           1           0           0           0           0
 OPTION 1 -- RECHARGE IN UZF TO TOP LAYER ONLY 



            ROUTING OVERLAND RUNOFF
 READING ON UNIT   19 WITH FORMAT: (20I4)              

                1           2           3           4           5           6           7           8           9          10
 ............................................................................................................................
   1            1           1           0           0           0           0           0           0           0           0
   2            1           1           1           0           0           3           3           3           0           0
   3            0           1           1           1           3           3           3           3           0           0
   4            8           8           2           2           2           2           2           3           3           0
   5            8           8           8           8           2           2           2           3           4           4
   6            8           8           8           8           8           2           2           4           4           4
   7            8           8           8           8           8           2           5           5           5           0
   8            0           8           8           8           8           2           5           5           5           0
   9            0           8           8           8           8           6           6           6           6           0
  10            0           8           8           8           8           6           6           6           6           6
  11            0           8           8           8           8           8           6           6           7           0
  12            8           8           8           8           8           8           6           7           7           0
  13            8           8           8           8           8           8           7           7           7           0
  14            0           8           8           8           8           8           7           7           7           0
  15            0           0           8           8           8           8           0           0           0           0



               SATURATED VERTICAL K
 READING ON UNIT   19 WITH FORMAT: (10F4.0)            

            1           2           3           4           5           6           7           8           9          10
 ........................................................................................................................
   1   0.1000E-05  0.1000E-05   0.000       0.000       0.000       0.000       0.000       0.000       0.000       0.000    
   2   0.1000E-05  0.1000E-05  0.1000E-05   0.000       0.000      0.1000E-05  0.1000E-05  0.1000E-05   0.000       0.000    
   3    0.000      0.1000E-05  0.1000E-05  0.1000E-05  0.1000E-05  0.1000E-05  0.1000E-05  0.1000E-05   0.000       0.000    
   4   0.1000E-05  0.1000E-05  0.1000E-05  0.1000E-05  0.1000E-05  0.1000E-05  0.1000E-05  0.1000E-05  0.1000E-05   0.000    
   5   0.1000E-05  0.1000E-05  0.1000E-05  0.1000E-05  0.1000E-05  0.1000E-05  0.1000E-05  0.1000E-05  0.1000E-05  0.1000E-05
   6   0.1000E-05  0.1000E-05  0.1000E-05  0.1000E-05  0.1000E-05  0.1000E-05  0.1000E-05  0.1000E-05  0.1000E-05  0.1000E-05
   7   0.1000E-05  0.1000E-05  0.1000E-05  0.1000E-05  0.1000E-05  0.1000E-05  0.1000E-05  0.1000E-05  0.1000E-05   0.000    
   8    0.000      0.1000E-05  0.1000E-05  0.1000E-05  0.1000E-05  0.1000E-05  0.1000E-05  0.1000E-05  0.1000E-05   0.000    
   9    0.000      0.1000E-05  0.1000E-05  0.1000E-05  0.1000E-05  0.1000E-05  0.1000E-05  0.1000E-05  0.1000E-05   0.000    
  10    0.000      0.1000E-05  0.1000E-05  0.1000E-05  0.1000E-05  0.1000E-05  0.1000E-05  0.1000E-05  0.1000E-05  0.1000E-05
  11    0.000      0.1000E-05  0.1000E-05  0.1000E-05  0.1000E-05  0.1000E-05  0.1000E-05  0.1000E-05  0.1000E-05   0.000    
  12   0.1000E-05  0.1000E-05  0.1000E-05  0.1000E-05  0.1000E-05  0.1000E-05  0.1000E-05  0.1000E-05  0.1000E-05   0.000    
  13   0.1000E-05  0.1000E-05  0.1000E-05  0.1000E-05  0.1000E-05  0.1000E-05  0.1000E-05  0.1000E-05  0.1000E-05   0.000    
  14    0.000      0.1000E-05  0.1000E-05  0.1000E-05  0.1000E-05  0.1000E-05  0.1000E-05  0.1000E-05  0.1000E-05   0.000    
  15    0.000       0.000      0.1000E-05  0.1000E-05  0.1000E-05  0.1000E-05   0.000       0.000       0.000       0.000    

     BROOKS-COREY EPSILON =   3.50000    

  SATURATED WATER CONTENT =  0.300000    

UNSATURATED FLOW RESULTS WILL BE PRINTED TO SEPARATE FILES FOR SELECTED MODEL CELLS, AND TIME STEPS AS DEFINED BY OUTPUT CONTROL PACKAGE 

SELECTED MODEL CELLS ARE: 
 ROW NUMBER  COLUMN NUMBER  FORTRAN UNIT NUMBER  OUTPUT OPTION


       3             6                 65                 1
       6             3                 66                 2
      10             5                 67                 3
       0             0                 68                 4

-- READING GAG PACKAGE INPUT --

# UZFtest2
# MODFLOW-2005 Example problem documented in:
#   Harbaugh, A.W., 2005, MODFLOW-2005, the U.S. Geological Survey modular ground-water model -- the Ground-Water Flow Process: U.S. Geological Survey Techniques and Methods 6-A16.
#   Harbaugh, A.W., Banta, E.R., Hill, M.C. and McDonald, M.G., 2000, MODFLOW-2000, The U.S. Geological Survey Modular Ground-Water Model - User Guide to Modularization Concepts and the Ground-Water Flow Process: U.S Geological Survey Open-File Report 2000
#   Niswonger, R.G., Prudic, D.E., and Regan, R.S., 2006, Documentation of the Unsaturated-Zone Flow (UZF1) Package for modeling unsaturated flow between the land surface and the water table with MODFLOW-2005: U.S. Geological Techniques and Methods Book 6,
#
#      -Comments are preceded by a # sign
#
#-----------------------------------------------------------------------------------------------------------------------------------------------------




   9 GAGING STATIONS WERE SPECIFIED.
     (Lakes are identified by a negative value of the Lake Number)
     RECORDS WILL BE WRITTEN TO SEPARATE OUTPUT FILES REPRESENTED BY FOLLOWING UNIT NUMBERS:

 Stream Gages:
  GAGE #   SEGMENT   REACH   UNIT   OUTTYPE
       1       1       4      83       1
       2       2       3      84       1
       3       3       5      85       1
       4       4       3      86       1
       5       5       4      87       4
       6       6       5      88       4
       7       7       3      89       4
       8       8       6      90       4
       9       3       1      91       5





 SIP -- STRONGLY-IMPLICIT PROCEDURE SOLUTION PACKAGE
                    VERSION OWHM INPUT READ FROM UNIT   13

-- READING SIP PACKAGE INPUT --

# UZFtest2
# MODFLOW-2005 Example problem documented in:
#   Harbaugh, A.W., 2005, MODFLOW-2005, the U.S. Geological Survey modular ground-water model -- the Ground-Water Flow Process: U.S. Geological Survey Techniques and Methods 6-A16.
#   Harbaugh, A.W., Banta, E.R., Hill, M.C. and McDonald, M.G., 2000, MODFLOW-2000, The U.S. Geological Survey Modular Ground-Water Model - User Guide to Modularization Concepts and the Ground-Water Flow Process: U.S Geological Survey Open-File Report 2000-92, 121 p., https://doi.org/10.3133/ofr200092
#   Niswonger, R.G., Prudic, D.E., and Regan, R.S., 2006, Documentation of the Unsaturated-Zone Flow (UZF1) Package for modeling unsaturated flow between the land surface and the water table with MODFLOW-2005: U.S. Geological Techniques and Methods Book 6, Chapter A19, 62 p.
#
#      -Comments are preceded by a # sign
#
#-----------------------------------------------------------------------------------------------------------------------------------------------------

 MAXIMUM OF 300 ITERATIONS ALLOWED FOR CLOSURE
  5 ITERATION PARAMETERS

          SOLUTION BY THE STRONGLY IMPLICIT PROCEDURE
          -------------------------------------------
 MAXIMUM ITERATIONS ALLOWED FOR CLOSURE =      300
                 ACCELERATION PARAMETER =    0.80000    
      HEAD CHANGE CRITERION FOR CLOSURE =    0.20000E-03
      SIP HEAD CHANGE PRINTOUT INTERVAL =        1

     CALCULATE ITERATION PARAMETERS FROM MODEL CALCULATED WSEED


########################################################################################################

                           WARNING_MESSAGE

         THE FOLLOWING COMMENTS WERE PASSED TO THE WARNING ROUTINE

THE DESRIPTION OF THE WARNING IS:

DIS PACKAGE: THE GROUND SURFACE ELEVATION WAS NOT SPECIFIED WITH THE KEYWORD "SURFACE_ELEVATION"

BEFORE LOADING THE "TOP" ARRAY FOR LAYER 1
NOR WAS IT DEFINED WITH ANOTHER PACKAGE   (e.g. FMPs GLOBAL DIMENSION KEYWORD "SURFACE_ELEVATION")

OneWater WILL SET THE GROUND SURFACE ELEVATION (GSE)
TO THE TOP ELEVATION OF THE UPPER MOST ACTIVE CELL OR THE DIS TOP OF LAY1.

NOTE THAT SFR DOES USE GSE FOR ALL DIVERSION SEGMENTS
   WHEN "IRDFLG" IS SET TO 2 or -2.

########################################################################################################



1
                            STRESS PERIOD NO.      1, LENGTH =   2628000.    
                            -----------------------------------------------

                              NUMBER OF TIME STEPS =     1

                               MULTIPLIER FOR DELT =     1.000

                            INITIAL TIME STEP SIZE =   2628000.    

PARAMETERS HAVE BEEN USED IN PACKAGES

THE CURRENT STORAGE FOR PARAMETERS IS: 
No. PARAMETER=         0 WITH MAX STORAGE (MXPAR)  OF      2000
No. CLUSTERS =         0 WITH MAX STORAGE (MXCLST) OF   2000000
No. INSTANCES=         0 WITH MAX STORAGE (MXINST) OF     50000

YOU CAN INCREASE/DECREASE STORAGE WITH BAS OPTION:
MAXPARAM  MXPAR  MXCLST MXINST

FYI, YOU CAN REDUCE RAM USUAGE WITH BAS OPTION
(NOTE THE THREE NUMBERS ARE A MINUMUM SIZE):
   MAXPARAM          1         1         1


 WEL PACKAGE STRESS PERIOD INFORMATION [BEFORE APPLICATION OF TABFILES]

 WELL NO.  LAYER   ROW   COL   STRESS RATE         
 --------------------------------------------------
      1      1      6      4  -2.0000000    
      2      1      6      5  -2.0000000    
      3      1      7      4  -2.0000000    
      4      1      7      5  -2.0000000    
      5      1      8      4  -2.0000000    
      6      1      8      5  -2.0000000    
      7      1      9      4  -2.0000000    
      8      1      9      5  -2.0000000    
      9      1     10      4  -2.0000000    
     10      1     10      5  -2.0000000    

10 WELLS

 GHB PACKAGE STRESS PERIOD INFORMATION [BEFORE APPLICATION OF TABFILES]

 BOUND. NO. LAYER   ROW   COL     BHEAD      CONDUCTANCE         
 ----------------------------------------------------------------
      1      1     13      1   988.00000      0.38000000E-01
      2      1     14      9   1045.0000      0.38000000E-01

      2 GHB CELLS



 CLASSIFICATION & COUNT OF STREAM SEGMENTS BASED ON SOURCE OF INFLOW:

                HEADWATER     DIVERSION     RECEIVES TRIBUTARY FLOW
                ---------     ---------     -----------------------
                     3              1               4



                    INPUT DATA FOR EACH STREAM SEGMENT
 ---------------------------------------------------------------------------------------------

 SEGMENT    SEG.     INFLOW   OVERLAND   STREAM    STREAM   ICALC  OUTFLOW  DIVERSION PRIORITY
    NO.    LENGTH     RATE     RUNOFF      ET       PPT.    METH.  TO SEG.  FROM SEG.    NO.

      1  2.305E+04 2.500E+01 0.000E+00 0.000E+00 0.000E+00    4        2        0        0
      2  2.650E+04 0.000E+00 0.000E+00 0.000E+00 0.000E+00    1        6        0        0
      3  2.750E+04 1.000E+01 0.000E+00 0.000E+00 0.000E+00    0        5        1        0
      4  1.100E+04 1.000E+01 0.000E+00 0.000E+00 0.000E+00    1        5        0        0
      5  1.500E+04 0.000E+00 0.000E+00 0.000E+00 0.000E+00    3        6        0        0
      6  2.200E+04 0.000E+00 0.000E+00 0.000E+00 0.000E+00    1        8        0        0
      7  1.550E+04 1.500E+02 0.000E+00 0.000E+00 0.000E+00    2        8        0        0
      8  2.800E+04 0.000E+00 0.000E+00 0.000E+00 0.000E+00    2        0        0        0


         STREAMBED PROPERTIES AND STREAM DIMENSIONS

 SEGMENT     BED HYD. COND.      BED THICKNESS     ELEV.-TOP OF BED     WIDTH OF STREAM     DEPTH OF STREAM    STREAM ROUGHNESS
    No.     UPPER     LOWER     UPPER     LOWER     UPPER     LOWER     UPPER     LOWER     UPPER     LOWER   CHANNEL      BANK

     1  3.000E-05 3.000E-05 3.000E+00 3.000E+00 1.095E+03 1.075E+03
     2  3.000E-05 3.000E-05 3.000E+00 3.000E+00 1.075E+03 1.050E+03 1.200E+01 1.200E+01                     3.000E-02
     3  3.000E-05 3.000E-05 2.000E+00 2.000E+00 1.075E+03 1.060E+03 1.000E+01 6.000E+00 2.000E+00 1.000E+00
     4  3.000E-05 3.000E-05 3.000E+00 3.000E+00 1.080E+03 1.060E+03 1.000E+01 1.000E+01                     3.000E-02
     5  3.000E-05 3.000E-05 3.000E+00 3.000E+00 1.060E+03 1.045E+03
     6  3.000E-05 3.000E-05 3.000E+00 3.000E+00 1.045E+03 1.025E+03 1.200E+01 1.200E+01                     3.000E-02
     7  6.000E-05 6.000E-05 3.000E+00 3.000E+00 1.040E+03 1.025E+03                                         2.500E-02 4.500E-02
     8  6.000E-05 6.000E-05 3.000E+00 3.000E+00 1.025E+03 9.900E+02                                         2.500E-02 4.500E-02

  EIGHT POINT CROSS-SECTION DATA FOR SEGMENTS WITH ICALC = 2
    X VALUES X VALUES START FROM LEFT SIDE LOOKING DOWNSTREAM

     SEGMENT NO.        X1        X2        X3        X4        X5        X6        X7        X8
            7      0.000E+00 1.000E+01 8.000E+01 1.000E+02 1.500E+02 1.700E+02 2.400E+02 2.500E+02
            8      0.000E+00 1.000E+01 8.000E+01 1.000E+02 1.500E+02 1.700E+02 2.400E+02 2.500E+02

    Z VALUES ARE RELATIVE TO STREAMBED ELEVATION

     SEGMENT NO.          Z1        Z2        Z3        Z4        Z5        Z6        Z7        Z8
            7      2.000E+01 1.300E+01 1.000E+01 2.000E+00 0.000E+00 1.000E+01 1.300E+01 2.000E+01
            8      2.500E+01 1.700E+01 1.300E+01 4.000E+00 0.000E+00 1.000E+01 1.600E+01 2.000E+01

 STREAMFLOW RELATION WITH DEPTH IS BASED ON EQUATION Q = CDPTH*(DEPTH)**FDPTH
 STREAMFLOW RELATION WITH WIDTH IS BASED ON EQUATION Q = AWDTH*(WIDTH)**BWDTH

 SEGMENT NO.      CDPTH     FDPTH    AWDTH     BWDTH

          5 3.000E-01 3.500E-01 3.800E+00 6.000E-01

 STREAMFLOW RELATION WITH DEPTH AND WIDTH IS BASED ON TABULATED VALUES

  SEGMENT NO.   STREAMFLOW       DEPTH       WIDTH

          1        5.0000E-01      2.5000E-01      3.0000E+00
          1        1.0000E+00      4.0000E-01      3.5000E+00
          1        2.0000E+00      5.5000E-01      4.2000E+00
          1        4.0000E+00      7.0000E-01      5.3000E+00
          1        7.0000E+00      8.0000E-01      7.0000E+00
          1        1.0000E+01      9.0000E-01      8.5000E+00
          1        2.0000E+01      1.1000E+00      1.2000E+01
          1        3.0000E+01      1.2500E+00      1.4000E+01
          1        5.0000E+01      1.4000E+00      1.7000E+01
          1        7.5000E+01      1.7000E+00      2.0000E+01
          1        1.0000E+02      1.8000E+00      2.2000E+01



            AREAL INFILTRATION RATE
 READING ON UNIT   19 WITH FORMAT: (10F4.0)            

            1           2           3           4           5           6           7           8           9          10
 ........................................................................................................................
   1   0.1000E-08  0.2000E-08   0.000       0.000       0.000       0.000       0.000       0.000       0.000       0.000    
   2   0.2000E-08  0.1000E-08  0.2000E-08   0.000       0.000      0.8000E-08  0.8000E-08  0.5000E-08   0.000       0.000    
   3    0.000      0.5000E-08  0.1000E-08  0.1000E-08  0.8000E-08  0.8000E-08  0.5000E-08  0.5000E-08   0.000       0.000    
   4   0.8000E-08  0.5000E-08  0.1000E-08  0.1000E-08  0.1000E-08  0.1000E-08  0.1000E-08  0.1000E-08  0.2000E-08   0.000    
   5   0.8000E-08  0.5000E-08  0.1000E-08  0.1000E-08  0.1000E-08  0.1000E-08  0.1000E-08  0.1000E-08  0.1000E-08  0.1000E-08
   6   0.8000E-08  0.5000E-08  0.5000E-08  0.2000E-08  0.2000E-08  0.1000E-08  0.1000E-08  0.1000E-08  0.1000E-08  0.5000E-08
   7   0.8000E-08  0.5000E-08  0.5000E-08  0.2000E-08  0.2000E-08  0.1000E-08  0.1000E-08  0.2000E-08  0.2000E-08   0.000    
   8    0.000      0.5000E-08  0.5000E-08  0.2000E-08  0.2000E-08  0.1000E-08  0.1000E-08  0.2000E-08  0.5000E-08   0.000    
   9    0.000      0.5000E-08  0.5000E-08  0.2000E-08  0.2000E-08  0.1000E-08  0.1000E-08  0.2000E-08  0.5000E-08   0.000    
  10    0.000      0.5000E-08  0.5000E-08  0.2000E-08  0.2000E-08  0.1000E-08  0.1000E-08  0.2000E-08  0.5000E-08  0.8000E-08
  11    0.000      0.1000E-08  0.1000E-08  0.1000E-08  0.1000E-08  0.1000E-08  0.1000E-08  0.2000E-08  0.5000E-08   0.000    
  12   0.1000E-08  0.1000E-08  0.1000E-08  0.1000E-08  0.1000E-08  0.1000E-08  0.1000E-08  0.1000E-08  0.2000E-08   0.000    
  13   0.1000E-08  0.1000E-08  0.2000E-08  0.2000E-08  0.2000E-08  0.2000E-08  0.2000E-08  0.1000E-08  0.1000E-08   0.000    
  14    0.000      0.2000E-08  0.5000E-08  0.5000E-08  0.5000E-08  0.5000E-08  0.5000E-08  0.2000E-08  0.1000E-08   0.000    
  15    0.000       0.000      0.8000E-08  0.8000E-08  0.8000E-08  0.8000E-08   0.000       0.000       0.000       0.000    

                  ET RATE =  5.000000E-08

      ET EXTINCTION DEPTH =   15.0000    



           EXTINCTION WATER CONTENT
 READING ON UNIT   19 WITH FORMAT: (10F4.0)            

            1           2           3           4           5           6           7           8           9          10
 ........................................................................................................................
   1   0.1000      0.1000       0.000       0.000       0.000       0.000       0.000       0.000       0.000       0.000    
   2   0.2000      0.1000      0.1000       0.000       0.000      0.2000      0.2000      0.2000       0.000       0.000    
   3    0.000      0.2000      0.1000      0.1000      0.2000      0.2000      0.2000      0.2000       0.000       0.000    
   4   0.2000      0.2000      0.2000      0.1000      0.1000      0.1000      0.2000      0.2000      0.2000      0.1000    
   5   0.2000      0.2000      0.2000      0.1000      0.1000      0.1000      0.1000      0.1000      0.1000      0.1000    
   6   0.2000      0.2000      0.2000      0.1000      0.1000      0.1000      0.1000      0.1000      0.2000      0.2000    
   7   0.2000      0.2000      0.2000      0.1000      0.1000      0.1000      0.1000      0.1000      0.2000       0.000    
   8    0.000      0.2000      0.2000      0.1000      0.1000      0.1000      0.1000      0.2000      0.2000       0.000    
   9    0.000      0.2000      0.2000      0.1000      0.1000      0.1000      0.1000      0.2000      0.2000       0.000    
  10    0.000      0.2000      0.2000      0.1000      0.1000      0.1000      0.1000      0.2000      0.2000      0.2000    
  11    0.000      0.2000      0.2000      0.1000      0.1000      0.1000      0.1000      0.2000      0.2000       0.000    
  12   0.2000      0.2000      0.1000      0.1000      0.1000      0.1000      0.1000      0.2000      0.2000       0.000    
  13   0.1000      0.1000      0.1000      0.1000      0.1000      0.1000      0.1000      0.1000      0.1000       0.000    
  14    0.000      0.2000      0.2000      0.2000      0.2000      0.2000      0.2000      0.2000      0.1000       0.000    
  15    0.000       0.000      0.2000      0.2000      0.2000      0.2000       0.000       0.000       0.000       0.000    
 
 SOLVING FOR HEAD 

 AVERAGE SEED = 0.00926840
 MINIMUM SEED = 0.00187768

     5 ITERATION PARAMETERS CALCULATED FROM AVERAGE SEED:

  0.000000E+00 0.689722E+00 0.903727E+00 0.970129E+00 0.990732E+00

    30 ITERATIONS FOR TIME STEP   1 IN STRESS PERIOD    1

 MAXIMUM HEAD CHANGE FOR EACH ITERATION:

    HEAD CHANGE   HEAD CHANGE   HEAD CHANGE   HEAD CHANGE   HEAD CHANGE
  LAYER,ROW,COL LAYER,ROW,COL LAYER,ROW,COL LAYER,ROW,COL LAYER,ROW,COL
 ----------------------------------------------------------------------
      5.187        -1.627        -1.328        -1.137        -1.207    
  (  1, 15,  3) (  1,  8,  4) (  1,  6,  4) (  1,  7,  2) (  1, 10,  7)
    -0.4943       -0.1953       -0.2020       -0.2793       -0.1413    
  (  1, 10, 10) (  1,  9,  9) (  1,  8,  7) (  1,  7,  6) (  1, 10,  7)
    -0.1806       -0.3592E-01   -0.4329E-01   -0.4095E-01   -0.3820E-01
  (  1, 10, 10) (  1, 10, 10) (  1,  6,  5) (  1,  7,  1) (  1,  6,  6)
    -0.3408E-01   -0.8377E-02   -0.6782E-02   -0.9081E-02   -0.4933E-02
  (  1, 10, 10) (  1,  9,  9) (  1,  8,  5) (  1,  6,  1) (  1,  8,  2)
    -0.6397E-02   -0.1278E-02   -0.1625E-02   -0.1532E-02   -0.1449E-02
  (  1, 10, 10) (  1, 10, 10) (  1,  6,  5) (  1,  7,  1) (  1,  6,  6)
    -0.1245E-02   -0.3127E-03   -0.2565E-03   -0.3438E-03   -0.1863E-03
  (  1, 10, 10) (  1,  9,  9) (  1,  8,  5) (  1,  6,  1) (  1,  8,  2)


 OUTPUT CONTROL FOR STRESS PERIOD      1   TIME STEP     1
    PRINT BUDGET
    SAVE BUDGET

           WELLS   PERIOD 1   STEP 1
WELL          1   LAYER          1   ROW          6   COL          4   RATE -2.0
WELL          2   LAYER          1   ROW          6   COL          5   RATE -2.0
WELL          3   LAYER          1   ROW          7   COL          4   RATE -2.0
WELL          4   LAYER          1   ROW          7   COL          5   RATE -2.0
WELL          5   LAYER          1   ROW          8   COL          4   RATE -2.0
WELL          6   LAYER          1   ROW          8   COL          5   RATE -2.0
WELL          7   LAYER          1   ROW          9   COL          4   RATE -2.0
WELL          8   LAYER          1   ROW          9   COL          5   RATE -2.0
WELL          9   LAYER          1   ROW         10   COL          4   RATE -2.0
WELL         10   LAYER          1   ROW         10   COL          5   RATE -2.0

  HEAD DEP BOUNDS   PERIOD    1   STEP   1
 BOUNDARY      1   LAYER   1   ROW    13   COL     1   RATE   -0.261185       COND    0.380000E-01
 BOUNDARY      2   LAYER   1   ROW    14   COL     9   RATE    0.209945       COND    0.380000E-01



 STREAM LISTING     PERIOD      1   STEP        1

 LAYER ROW COL. STREAM  RCH.  FLOW INTO     FLOW TO   FLOW OUT OF   OVRLND.     DIRECT     STREAM       STREAM     STREAM     STREAM   STREAMBED  STREAMBED  STREAMBED
                SEG.NO.  NO.  STRM. RCH.    AQUIFER    STRM. RCH.    RUNOFF     PRECIP       ET          HEAD       DEPTH      WIDTH   CONDCTNC.   GRADIENT  ELEVATION

   1    1    1     1     1    2.5000E+01  1.0782E+00   2.3922E+01  0.000E+00  0.000E+00  0.000E+00  1.09422E+03  1.172E+00  1.295E+01  5.830E-01  6.165E-01  1.093E+03
   1    2    2     1     2    2.3922E+01  3.1526E+00   2.0769E+01  0.000E+00  0.000E+00  0.000E+00  1.08920E+03  1.139E+00  1.252E+01  8.762E-01  1.199E+00  1.088E+03
   1    3    3     1     3    2.0769E+01  2.8941E+00   1.7875E+01  0.000E+00  0.000E+00  0.000E+00  1.08351E+03  1.089E+00  1.180E+01  7.078E-01  1.363E+00  1.082E+03
   1    3    4     1     4    1.7875E+01  2.4577E+00   1.5417E+01  0.000E+00  0.000E+00  0.000E+00  1.07845E+03  1.043E+00  1.095E+01  6.079E-01  1.348E+00  1.077E+03
   1    4    5     2     1    5.4174E+00  2.6578E+00   2.7596E+00  0.000E+00  0.000E+00  0.000E+00  1.07234E+03  4.075E-01  1.200E+01  7.800E-01  1.136E+00  1.072E+03
   1    5    6     2     2    2.7596E+00  1.9487E+00   8.1089E-01  0.000E+00  0.000E+00  0.000E+00  1.06676E+03  2.478E-01  1.200E+01  6.000E-01  1.083E+00  1.067E+03
   1    6    6     2     3    8.1089E-01  8.1089E-01   0.0000E+00  0.000E+00  0.000E+00  0.000E+00  1.06183E+03  3.473E-02  1.200E+01  6.000E-01  1.012E+00  1.062E+03
   1    7    6     2     4    0.0000E+00  0.0000E+00   0.0000E+00  0.000E+00  0.000E+00  0.000E+00  1.05708E+03  0.000E+00  1.200E+01  6.000E-01  1.000E+00  1.057E+03
   1    8    6     2     5    0.0000E+00  0.0000E+00   0.0000E+00  0.000E+00  0.000E+00  0.000E+00  1.05236E+03  0.000E+00  1.200E+01  6.000E-01  1.000E+00  1.052E+03
   1    3    5     3     1    1.0000E+01  2.8252E+00   7.1748E+00  0.000E+00  0.000E+00  0.000E+00  1.07555E+03  1.909E+00  9.636E+00  7.227E-01  1.955E+00  1.074E+03
   1    3    6     3     2    7.1748E+00  2.2827E+00   4.8921E+00  0.000E+00  0.000E+00  0.000E+00  1.07264E+03  1.727E+00  8.909E+00  6.682E-01  1.708E+00  1.071E+03
   1    3    7     3     3    4.8921E+00  1.1634E+00   3.7287E+00  0.000E+00  0.000E+00  0.000E+00  1.06987E+03  1.555E+00  8.218E+00  5.547E-01  1.049E+00  1.068E+03
   1    4    8     3     4    3.7287E+00  1.6871E+00   2.0416E+00  0.000E+00  0.000E+00  0.000E+00  1.06682E+03  1.364E+00  7.455E+00  6.709E-01  1.257E+00  1.065E+03
   1    5    8     3     5    2.0416E+00  1.5789E+00   4.6265E-01  0.000E+00  0.000E+00  0.000E+00  1.06362E+03  1.164E+00  6.655E+00  4.991E-01  1.582E+00  1.062E+03
   1    6    8     3     6    4.6265E-01  4.6265E-01   0.0000E+00  0.000E+00  0.000E+00  0.000E+00  1.06158E+03  0.000E+00  6.145E+00  1.844E-01  1.518E+00  1.061E+03
   1    5   10     4     1    1.0000E+01  9.0525E-01   9.0947E+00  0.000E+00  0.000E+00  0.000E+00  1.07835E+03  6.210E-01  1.000E+01  2.500E-01  1.207E+00  1.078E+03
   1    5    9     4     2    9.0947E+00  1.7835E+00   7.3113E+00  0.000E+00  0.000E+00  0.000E+00  1.07148E+03  5.670E-01  1.000E+01  5.000E-01  1.189E+00  1.071E+03
   1    6    8     4     3    7.3113E+00  1.2257E+00   6.0855E+00  0.000E+00  0.000E+00  0.000E+00  1.06368E+03  5.021E-01  1.000E+01  3.500E-01  1.167E+00  1.063E+03
   1    6    8     5     1    6.0855E+00  1.0332E+00   5.0524E+00  0.000E+00  0.000E+00  0.000E+00  1.05855E+03  5.472E-01  1.065E+01  4.259E-01  8.086E-01  1.058E+03
   1    7    7     5     2    5.0524E+00  1.5857E+00   3.4667E+00  0.000E+00  0.000E+00  0.000E+00  1.05400E+03  4.982E-01  9.066E+00  4.533E-01  1.166E+00  1.054E+03
   1    8    7     5     3    3.4667E+00  8.8888E-01   2.5778E+00  0.000E+00  0.000E+00  0.000E+00  1.04969E+03  4.418E-01  7.379E+00  2.583E-01  1.147E+00  1.049E+03
   1    8    6     5     4    2.5778E+00  5.3424E-01   2.0436E+00  0.000E+00  0.000E+00  0.000E+00  1.04665E+03  4.022E-01  6.281E+00  1.570E-01  1.134E+00  1.046E+03
   1    9    6     6     1    2.0436E+00  1.9117E+00   1.3186E-01  0.000E+00  0.000E+00  0.000E+00  1.04291E+03  1.862E-01  1.200E+01  6.000E-01  1.062E+00  1.043E+03
   1   10    7     6     2    1.3186E-01  1.3186E-01   0.0000E+00  0.000E+00  0.000E+00  0.000E+00  1.03819E+03  1.181E-02  1.200E+01  6.000E-01  1.004E+00  1.038E+03
   1   11    7     6     3    0.0000E+00  0.0000E+00   0.0000E+00  0.000E+00  0.000E+00  0.000E+00  1.03364E+03  0.000E+00  1.200E+01  6.000E-01  1.000E+00  1.034E+03
   1   12    7     6     4    0.0000E+00  0.0000E+00   0.0000E+00  0.000E+00  0.000E+00  0.000E+00  1.02909E+03  0.000E+00  1.200E+01  6.000E-01  4.154E-01  1.029E+03
   1   13    7     6     5    0.0000E+00 -7.6282E-01   7.6282E-01  0.000E+00  0.000E+00  0.000E+00  1.02601E+03  9.927E-02  1.200E+01  2.400E-01 -1.059E+00  1.026E+03
   1   14    9     7     1    1.5000E+02  2.1863E+00   1.4781E+02  0.000E+00  0.000E+00  0.000E+00  1.03987E+03  2.285E+00  5.528E+01  5.592E+00  1.303E-01  1.038E+03
   1   13    8     7     2    1.4781E+02  3.2077E+00   1.4461E+02  0.000E+00  0.000E+00  0.000E+00  1.03477E+03  2.271E+00  5.522E+01  6.143E+00  1.740E-01  1.032E+03
   1   13    7     7     3    1.4461E+02  2.7203E+00   1.4189E+02  0.000E+00  0.000E+00  0.000E+00  1.02967E+03  2.255E+00  5.515E+01  5.577E+00  1.626E-01  1.027E+03
   1   13    6     8     1    1.4265E+02  1.0423E+00   1.4161E+02  0.000E+00  0.000E+00  0.000E+00  1.02464E+03  2.760E+00  4.003E+01  4.079E+00  8.518E-02  1.022E+03
   1   13    5     8     2    1.4161E+02 -1.7240E+00   1.4333E+02  0.000E+00  0.000E+00  0.000E+00  1.01839E+03  2.763E+00  4.006E+01  4.083E+00 -1.408E-01  1.016E+03
   1   13    4     8     3    1.4333E+02 -3.4966E+00   1.4683E+02  0.000E+00  0.000E+00  0.000E+00  1.01216E+03  2.782E+00  4.034E+01  4.110E+00 -2.836E-01  1.009E+03
   1   13    3     8     4    1.4683E+02 -3.8389E+00   1.5067E+02  0.000E+00  0.000E+00  0.000E+00  1.00593E+03  2.808E+00  4.072E+01  4.149E+00 -3.084E-01  1.003E+03
   1   13    2     8     5    1.5067E+02 -1.9161E+00   1.5258E+02  0.000E+00  0.000E+00  0.000E+00  9.99703E+02  2.828E+00  4.101E+01  4.179E+00 -1.528E-01  9.969E+02
   1   13    1     8     6    1.5258E+02 -4.0721E-01   1.5299E+02  0.000E+00  0.000E+00  0.000E+00  9.94711E+02  2.836E+00  4.113E+01  2.515E+00 -5.398E-02  9.919E+02



 UBDSV3 SAVING "           GW ET" ON UNIT 61 AT TIME STEP 1, STRESS PERIOD 1
 UBDSV3 SAVING "    UZF RECHARGE" ON UNIT 61 AT TIME STEP 1, STRESS PERIOD 1
 UBDSV3 SAVING " SURFACE LEAKAGE" ON UNIT 61 AT TIME STEP 1, STRESS PERIOD 1
 UBDSV3 SAVING "       HORT+DUNN" ON UNIT 61 AT TIME STEP 1, STRESS PERIOD 1
 UBDSV3 SAVING "  STORAGE CHANGE" ON UNIT 61 AT TIME STEP 1, STRESS PERIOD 1


UNSATURATED ZONE PACKAGE VOLUMETRIC BUDGET FOR  TIME STEP     1 STRESS PERIOD    1
  ------------------------------------------------------------------------------



     CUMULATIVE VOLUMES      L**3       RATES FOR THIS TIME STEP      L**3/T
     ------------------                 ------------------------

           IN:                                      IN:
           ---                                      ---
        INFILTRATION =       22272300.0          INFILTRATION =        8.4750000

          OUT:                                     OUT:
          ----                                     ----
              UZF ET =              0.0                UZF ET =              0.0
        UZF RECHARGE =       22272300.0          UZF RECHARGE =        8.4750000

            IN - OUT =              0.0              IN - OUT =              0.0

          STORAGE:                                 STORAGE:
          --------                                 --------
      STORAGE CHANGE =              0.0        STORAGE CHANGE =              0.0

 PERCENT DISCREPANCY =           0.00     PERCENT DISCREPANCY =           0.00




 PERCENT DISCREPANCY IS DIFFERENCE BETWEEN IN-OUT MINUS CHANGE IN STORAGE
 DIVIDED BY THE AVERAGE OF IN AND OUT TIMES 100






  -------------------------------------------------------------------------------------
  VOLUMETRIC BUDGET FOR ENTIRE MODEL AT END OF TIME STEP    1 IN STRESS PERIOD      1
  -------------------------------------------------------------------------------------

     CUMULATIVE VOLUMES      L**3       RATES FOR THIS TIME STEP      L**3/T
     ------------------                 ------------------------

           IN:                                      IN:
           ---                                      ---
             STORAGE =           0.0000               STORAGE =           0.0000
       CONSTANT HEAD =           0.0000         CONSTANT HEAD =           0.0000
               WELLS =           0.0000                 WELLS =           0.0000
     HEAD DEP BOUNDS =      551736.2325       HEAD DEP BOUNDS =           0.2099
      STREAM LEAKAGE =   116043470.3514        STREAM LEAKAGE =          44.1566
        UZF RECHARGE =    22272300.0000          UZF RECHARGE =           8.4750
               GW ET =           0.0000                 GW ET =           0.0000
     SURFACE LEAKAGE =           0.0000       SURFACE LEAKAGE =           0.0000

            TOTAL IN =   138867506.5839              TOTAL IN =          52.8415

          OUT:                                     OUT:
          ----                                     ----
             STORAGE =           0.0000               STORAGE =           0.0000
       CONSTANT HEAD =           0.0000         CONSTANT HEAD =           0.0000
               WELLS =    52560000.0000                 WELLS =          20.0000
     HEAD DEP BOUNDS =      686393.4146       HEAD DEP BOUNDS =           0.2612
      STREAM LEAKAGE =    31918854.9724        STREAM LEAKAGE =          12.1457
        UZF RECHARGE =           0.0000          UZF RECHARGE =           0.0000
               GW ET =    53703568.8795                 GW ET =          20.4351
     SURFACE LEAKAGE =           0.0000       SURFACE LEAKAGE =           0.0000

           TOTAL OUT =   138868817.2666             TOTAL OUT =          52.8420

            IN - OUT =       -1310.6827              IN - OUT =      -4.9874E-04

 PERCENT DISCREPANCY =          -0.00     PERCENT DISCREPANCY =          -0.00


          TIME SUMMARY AT END OF TIME STEP     1 IN STRESS PERIOD      1
                    SECONDS     MINUTES      HOURS       DAYS        YEARS
                    -----------------------------------------------------------
   TIME STEP LENGTH 2.62800E+06  43800.      730.00      30.417     8.32763E-02
 STRESS PERIOD TIME 2.62800E+06  43800.      730.00      30.417     8.32763E-02
         TOTAL TIME 2.62800E+06  43800.      730.00      30.417     8.32763E-02
 
1
                            STRESS PERIOD NO.      2, LENGTH =   2628000.    
                            -----------------------------------------------

                              NUMBER OF TIME STEPS =    15

                               MULTIPLIER FOR DELT =     1.100

                            INITIAL TIME STEP SIZE =   82713.09    

 WEL PACKAGE STRESS PERIOD INFORMATION [BEFORE APPLICATION OF TABFILES]

 WELL NO.  LAYER   ROW   COL   STRESS RATE         
 --------------------------------------------------
      1      1      6      4  -2.0000000    
      2      1      6      5  -2.0000000    
      3      1      7      4  -2.0000000    
      4      1      7      5  -2.0000000    
      5      1      8      4  -2.0000000    
      6      1      8      5  -2.0000000    
      7      1      9      4  -2.0000000    
      8      1      9      5  -2.0000000    
      9      1     10      4  -2.0000000    
     10      1     10      5  -2.0000000    

10 WELLS

 REUSING NON-PARAMETER GHB CELLS FROM LAST STRESS PERIOD

      2 GHB CELLS

 REUSING STREAM SEGMENT DATA FROM LAST STRESS PERIOD



            AREAL INFILTRATION RATE
 READING ON UNIT   19 WITH FORMAT: (10F4.0)            

            1           2           3           4           5           6           7           8           9          10
 ........................................................................................................................
   1   0.8000E-08  0.1600E-07   0.000       0.000       0.000       0.000       0.000       0.000       0.000       0.000    
   2   0.1600E-07  0.8000E-08  0.1600E-07   0.000       0.000      0.6400E-07  0.6400E-07  0.4000E-07   0.000       0.000    
   3    0.000      0.4000E-07  0.8000E-08  0.8000E-08  0.6400E-07  0.6400E-07  0.4000E-07  0.4000E-07   0.000       0.000    
   4   0.6400E-07  0.4000E-07  0.8000E-08  0.8000E-08  0.8000E-08  0.8000E-08  0.8000E-08  0.8000E-08  0.1600E-07   0.000    
   5   0.6400E-07  0.4000E-07  0.8000E-08  0.8000E-08  0.8000E-08  0.8000E-08  0.8000E-08  0.8000E-08  0.8000E-08  0.8000E-08
   6   0.6400E-07  0.4000E-07  0.4000E-07  0.1600E-07  0.1600E-07  0.8000E-08  0.8000E-08  0.8000E-08  0.8000E-08  0.4000E-07
   7   0.6400E-07  0.4000E-07  0.4000E-07  0.1600E-07  0.1600E-07  0.8000E-08  0.8000E-08  0.1600E-07  0.1600E-07   0.000    
   8    0.000      0.4000E-07  0.4000E-07  0.1600E-07  0.1600E-07  0.8000E-08  0.8000E-08  0.1600E-07  0.4000E-07   0.000    
   9    0.000      0.4000E-07  0.4000E-07  0.1600E-07  0.1600E-07  0.8000E-08  0.8000E-08  0.1600E-07  0.4000E-07   0.000    
  10    0.000      0.4000E-07  0.4000E-07  0.1600E-07  0.1600E-07  0.8000E-08  0.8000E-08  0.1600E-07  0.4000E-07  0.6400E-07
  11    0.000      0.8000E-08  0.8000E-08  0.8000E-08  0.8000E-08  0.8000E-08  0.8000E-08  0.1600E-07  0.4000E-07   0.000    
  12   0.8000E-08  0.8000E-08  0.8000E-08  0.8000E-08  0.8000E-08  0.8000E-08  0.8000E-08  0.8000E-08  0.1600E-07   0.000    
  13   0.8000E-08  0.8000E-08  0.1600E-07  0.1600E-07  0.1600E-07  0.1600E-07  0.1600E-07  0.8000E-08  0.8000E-08   0.000    
  14    0.000      0.1600E-07  0.4000E-07  0.4000E-07  0.4000E-07  0.4000E-07  0.4000E-07  0.1600E-07  0.8000E-08   0.000    
  15    0.000       0.000      0.6400E-07  0.6400E-07  0.6400E-07  0.6400E-07   0.000       0.000       0.000       0.000    

                  ET RATE =  5.000000E-08

 USING ET EXTINCTION DEPTH FROM PREVIOUS STRESS PERIOD. CURRENT PERIOD IS:       2

 USING EXTINCTION WATER CONTENT FROM PREVIOUS STRESS PERIOD. CURRENT PERIOD IS:       2
 
 SOLVING FOR HEAD 

     6 ITERATIONS FOR TIME STEP   1 IN STRESS PERIOD    2

 MAXIMUM HEAD CHANGE FOR EACH ITERATION:

    HEAD CHANGE   HEAD CHANGE   HEAD CHANGE   HEAD CHANGE   HEAD CHANGE
  LAYER,ROW,COL LAYER,ROW,COL LAYER,ROW,COL LAYER,ROW,COL LAYER,ROW,COL
 ----------------------------------------------------------------------
     0.8157E-02    0.3247E-02    0.1292E-02    0.5140E-03    0.2044E-03
  (  1,  3,  5) (  1,  3,  5) (  1,  3,  5) (  1,  3,  5) (  1,  3,  5)
     0.8132E-04
  (  1,  3,  5)


 OUTPUT CONTROL WAS SPECIFIED FOR A NONEXISTENT TIME STEP
 OR OUTPUT CONTROL DATA ARE NOT ENTERED IN ASCENDING ORDER
 OUTPUT CONTROL STRESS PERIOD      1   TIME STEP     5
 MODEL STRESS PERIOD      2   TIME STEP     1
 APPLYING THE SPECIFIED OUTPUT CONTROL TO THE CURRENT TIME STEP

 OUTPUT CONTROL FOR STRESS PERIOD      2   TIME STEP     1
    PRINT BUDGET
    SAVE BUDGET

           WELLS   PERIOD 2   STEP 1
WELL          1   LAYER          1   ROW          6   COL          4   RATE -2.0
WELL          2   LAYER          1   ROW          6   COL          5   RATE -2.0
WELL          3   LAYER          1   ROW          7   COL          4   RATE -2.0
WELL          4   LAYER          1   ROW          7   COL          5   RATE -2.0
WELL          5   LAYER          1   ROW          8   COL          4   RATE -2.0
WELL          6   LAYER          1   ROW          8   COL          5   RATE -2.0
WELL          7   LAYER          1   ROW          9   COL          4   RATE -2.0
WELL          8   LAYER          1   ROW          9   COL          5   RATE -2.0
WELL          9   LAYER          1   ROW         10   COL          4   RATE -2.0
WELL         10   LAYER          1   ROW         10   COL          5   RATE -2.0

  HEAD DEP BOUNDS   PERIOD    2   STEP   1
 BOUNDARY      1   LAYER   1   ROW    13   COL     1   RATE   -0.261270       COND    0.380000E-01
 BOUNDARY      2   LAYER   1   ROW    14   COL     9   RATE    0.209784       COND    0.380000E-01



 STREAM LISTING     PERIOD      2   STEP        1

 LAYER ROW COL. STREAM  RCH.  FLOW INTO     FLOW TO   FLOW OUT OF   OVRLND.     DIRECT     STREAM       STREAM     STREAM     STREAM   STREAMBED  STREAMBED  STREAMBED
                SEG.NO.  NO.  STRM. RCH.    AQUIFER    STRM. RCH.    RUNOFF     PRECIP       ET          HEAD       DEPTH      WIDTH   CONDCTNC.   GRADIENT  ELEVATION

   1    1    1     1     1    2.5000E+01  1.0761E+00   2.3924E+01  0.000E+00  0.000E+00  0.000E+00  1.09422E+03  1.172E+00  1.295E+01  5.830E-01  6.153E-01  1.093E+03
   1    2    2     1     2    2.3924E+01  3.1480E+00   2.0776E+01  0.000E+00  0.000E+00  0.000E+00  1.08920E+03  1.139E+00  1.252E+01  8.762E-01  1.198E+00  1.088E+03
   1    3    3     1     3    2.0776E+01  2.8946E+00   1.7881E+01  0.000E+00  0.000E+00  0.000E+00  1.08351E+03  1.089E+00  1.180E+01  7.079E-01  1.363E+00  1.082E+03
   1    3    4     1     4    1.7881E+01  2.4582E+00   1.5423E+01  0.000E+00  0.000E+00  0.000E+00  1.07845E+03  1.043E+00  1.095E+01  6.080E-01  1.348E+00  1.077E+03
   1    4    5     2     1    5.4231E+00  2.6581E+00   2.7650E+00  0.000E+00  0.000E+00  0.000E+00  1.07234E+03  4.078E-01  1.200E+01  7.800E-01  1.136E+00  1.072E+03
   1    5    6     2     2    2.7650E+00  1.9490E+00   8.1604E-01  0.000E+00  0.000E+00  0.000E+00  1.06676E+03  2.483E-01  1.200E+01  6.000E-01  1.083E+00  1.067E+03
   1    6    6     2     3    8.1604E-01  8.1604E-01   0.0000E+00  0.000E+00  0.000E+00  0.000E+00  1.06183E+03  3.486E-02  1.200E+01  6.000E-01  1.012E+00  1.062E+03
   1    7    6     2     4    0.0000E+00  0.0000E+00   0.0000E+00  0.000E+00  0.000E+00  0.000E+00  1.05708E+03  0.000E+00  1.200E+01  6.000E-01  1.000E+00  1.057E+03
[...]
          ----                                     ----
              UZF ET =     2.0902508E+9                UZF ET =       34.1064486
        UZF RECHARGE =     3.7399776E+8          UZF RECHARGE =        9.3047891

            IN - OUT =    -9.3856013E+8              IN - OUT =      -34.9362377

          STORAGE:                                 STORAGE:
          --------                                 --------
      STORAGE CHANGE =    -9.3835144E+8        STORAGE CHANGE =      -34.9344442

 PERCENT DISCREPANCY =          -0.00     PERCENT DISCREPANCY =          -0.00




 PERCENT DISCREPANCY IS DIFFERENCE BETWEEN IN-OUT MINUS CHANGE IN STORAGE
 DIVIDED BY THE AVERAGE OF IN AND OUT TIMES 100






  -------------------------------------------------------------------------------------
  VOLUMETRIC BUDGET FOR ENTIRE MODEL AT END OF TIME STEP   10 IN STRESS PERIOD     12
  -------------------------------------------------------------------------------------

     CUMULATIVE VOLUMES      L**3       RATES FOR THIS TIME STEP      L**3/T
     ------------------                 ------------------------

           IN:                                      IN:
           ---                                      ---
             STORAGE =   126945643.8427               STORAGE =           0.9491
       CONSTANT HEAD =           0.0000         CONSTANT HEAD =           0.0000
               WELLS =           0.0000                 WELLS =           0.0000
     HEAD DEP BOUNDS =     6315898.5378       HEAD DEP BOUNDS =           0.2094
      STREAM LEAKAGE =  1304225058.1208        STREAM LEAKAGE =          43.3216
        UZF RECHARGE =   373997761.9602          UZF RECHARGE =           9.3048
               GW ET =           0.0000                 GW ET =           0.0000
     SURFACE LEAKAGE =           0.0000       SURFACE LEAKAGE =           0.0000

            TOTAL IN =  1811484362.4615              TOTAL IN =          53.7849

          OUT:                                     OUT:
          ----                                     ----
             STORAGE =   476339424.4818               STORAGE =          21.0136
       CONSTANT HEAD =           0.0000         CONSTANT HEAD =           0.0000
               WELLS =   394200000.0000                 WELLS =           0.0000
     HEAD DEP BOUNDS =     7963053.7952       HEAD DEP BOUNDS =           0.2627
      STREAM LEAKAGE =   404643451.8218        STREAM LEAKAGE =          13.0882
        UZF RECHARGE =           0.0000          UZF RECHARGE =           0.0000
               GW ET =   528209953.5765                 GW ET =          19.4146
     SURFACE LEAKAGE =           0.0000       SURFACE LEAKAGE =           0.0000

           TOTAL OUT =  1811355883.6753             TOTAL OUT =          53.7792

            IN - OUT =      128478.7862              IN - OUT =       5.7317E-03

 PERCENT DISCREPANCY =           0.01     PERCENT DISCREPANCY =           0.01


          TIME SUMMARY AT END OF TIME STEP    10 IN STRESS PERIOD     12
                    SECONDS     MINUTES      HOURS       DAYS        YEARS
                    -----------------------------------------------------------
   TIME STEP LENGTH 1.95033E+05  3250.6      54.176      2.2573     6.18023E-03
 STRESS PERIOD TIME 1.31823E+06  21971.      366.18      15.257     4.17723E-02
         TOTAL TIME 3.02262E+07 5.03771E+05  8396.2      349.84     0.95781    
 
 
 SOLVING FOR HEAD 
     8 ITERATIONS FOR TIME STEP  11 IN STRESS PERIOD   12

 MAXIMUM HEAD CHANGE FOR EACH ITERATION:

    HEAD CHANGE   HEAD CHANGE   HEAD CHANGE   HEAD CHANGE   HEAD CHANGE
  LAYER,ROW,COL LAYER,ROW,COL LAYER,ROW,COL LAYER,ROW,COL LAYER,ROW,COL
 ----------------------------------------------------------------------
     0.4549E-01    0.1540E-01    0.7436E-02    0.3589E-02    0.1733E-02
  (  1,  7,  4) (  1, 15,  4) (  1, 15,  4) (  1, 15,  4) (  1, 15,  4)
     0.8364E-03    0.4037E-03    0.1949E-03
  (  1, 15,  4) (  1, 15,  4) (  1, 15,  4)


 NO OUTPUT CONTROL FOR STRESS PERIOD     12   TIME STEP    11
 
 SOLVING FOR HEAD 
     8 ITERATIONS FOR TIME STEP  12 IN STRESS PERIOD   12

 MAXIMUM HEAD CHANGE FOR EACH ITERATION:

    HEAD CHANGE   HEAD CHANGE   HEAD CHANGE   HEAD CHANGE   HEAD CHANGE
  LAYER,ROW,COL LAYER,ROW,COL LAYER,ROW,COL LAYER,ROW,COL LAYER,ROW,COL
 ----------------------------------------------------------------------
     0.4915E-01    0.1604E-01    0.7700E-02    0.3697E-02    0.1775E-02
  (  1,  7,  4) (  1, 15,  4) (  1, 15,  4) (  1, 15,  4) (  1, 15,  4)
     0.8525E-03    0.4093E-03    0.1965E-03
  (  1, 15,  4) (  1, 15,  4) (  1, 15,  4)


 NO OUTPUT CONTROL FOR STRESS PERIOD     12   TIME STEP    12
 
 SOLVING FOR HEAD 
     9 ITERATIONS FOR TIME STEP  13 IN STRESS PERIOD   12

 MAXIMUM HEAD CHANGE FOR EACH ITERATION:

    HEAD CHANGE   HEAD CHANGE   HEAD CHANGE   HEAD CHANGE   HEAD CHANGE
  LAYER,ROW,COL LAYER,ROW,COL LAYER,ROW,COL LAYER,ROW,COL LAYER,ROW,COL
 ----------------------------------------------------------------------
     0.5295E-01    0.1721E-01    0.8259E-02    0.3963E-02    0.1902E-02
  (  1,  7,  4) (  1, 15,  4) (  1, 15,  4) (  1, 15,  4) (  1, 15,  4)
     0.9125E-03    0.4378E-03    0.2101E-03    0.1008E-03
  (  1, 15,  4) (  1, 15,  4) (  1, 15,  4) (  1, 15,  4)


 NO OUTPUT CONTROL FOR STRESS PERIOD     12   TIME STEP    13
 
 SOLVING FOR HEAD 
     9 ITERATIONS FOR TIME STEP  14 IN STRESS PERIOD   12

 MAXIMUM HEAD CHANGE FOR EACH ITERATION:

    HEAD CHANGE   HEAD CHANGE   HEAD CHANGE   HEAD CHANGE   HEAD CHANGE
  LAYER,ROW,COL LAYER,ROW,COL LAYER,ROW,COL LAYER,ROW,COL LAYER,ROW,COL
 ----------------------------------------------------------------------
     0.5697E-01    0.1785E-01    0.8517E-02    0.4064E-02    0.1939E-02
  (  1,  7,  4) (  1, 15,  4) (  1, 15,  4) (  1, 15,  4) (  1, 15,  4)
     0.9254E-03    0.4415E-03    0.2106E-03    0.1005E-03
  (  1, 15,  4) (  1, 15,  4) (  1, 15,  4) (  1, 15,  4)


 NO OUTPUT CONTROL FOR STRESS PERIOD     12   TIME STEP    14
 
 SOLVING FOR HEAD 
     9 ITERATIONS FOR TIME STEP  15 IN STRESS PERIOD   12

 MAXIMUM HEAD CHANGE FOR EACH ITERATION:

    HEAD CHANGE   HEAD CHANGE   HEAD CHANGE   HEAD CHANGE   HEAD CHANGE
  LAYER,ROW,COL LAYER,ROW,COL LAYER,ROW,COL LAYER,ROW,COL LAYER,ROW,COL
 ----------------------------------------------------------------------
     0.6182E-01    0.2327E-01    0.1124E-01    0.5426E-02    0.2620E-02
  (  1,  8,  4) (  1, 15,  3) (  1, 15,  3) (  1, 15,  3) (  1, 15,  3)
     0.1265E-02    0.6108E-03    0.2949E-03    0.1424E-03
  (  1, 15,  3) (  1, 15,  3) (  1, 15,  3) (  1, 15,  3)


 OUTPUT CONTROL FOR STRESS PERIOD     12   TIME STEP    15
    PRINT BUDGET
    PRINT HEAD FOR ALL LAYERS
    SAVE HEAD FOR ALL LAYERS
    SAVE BUDGET

  HEAD DEP BOUNDS   PERIOD   12   STEP  15
 BOUNDARY      1   LAYER   1   ROW    13   COL     1   RATE   -0.262623       COND    0.380000E-01
 BOUNDARY      2   LAYER   1   ROW    14   COL     9   RATE    0.209608       COND    0.380000E-01



 STREAM LISTING     PERIOD     12   STEP       15

 LAYER ROW COL. STREAM  RCH.  FLOW INTO     FLOW TO   FLOW OUT OF   OVRLND.     DIRECT     STREAM       STREAM     STREAM     STREAM   STREAMBED  STREAMBED  STREAMBED
                SEG.NO.  NO.  STRM. RCH.    AQUIFER    STRM. RCH.    RUNOFF     PRECIP       ET          HEAD       DEPTH      WIDTH   CONDCTNC.   GRADIENT  ELEVATION

   1    1    1     1     1    2.5000E+01  1.0768E+00   2.3923E+01  0.000E+00  0.000E+00  0.000E+00  1.09422E+03  1.172E+00  1.295E+01  5.830E-01  6.157E-01  1.093E+03
   1    2    2     1     2    2.3923E+01  3.0797E+00   2.0843E+01  0.000E+00  0.000E+00  0.000E+00  1.08920E+03  1.140E+00  1.252E+01  8.767E-01  1.171E+00  1.088E+03
   1    3    3     1     3    2.0843E+01  2.9002E+00   1.7943E+01  0.000E+00  0.000E+00  0.000E+00  1.08351E+03  1.090E+00  1.182E+01  7.091E-01  1.363E+00  1.082E+03
   1    3    4     1     4    1.7943E+01  2.4632E+00   1.5480E+01  0.000E+00  0.000E+00  0.000E+00  1.07845E+03  1.044E+00  1.097E+01  6.091E-01  1.348E+00  1.077E+03
   1    4    5     2     1    5.4801E+00  2.6607E+00   2.8194E+00  0.000E+00  0.000E+00  0.000E+00  1.07235E+03  4.111E-01  1.200E+01  7.800E-01  1.137E+00  1.072E+03
   1    5    6     2     2    2.8194E+00  1.9516E+00   8.6780E-01  0.000E+00  0.000E+00  0.000E+00  1.06676E+03  2.527E-01  1.200E+01  6.000E-01  1.084E+00  1.067E+03
   1    6    6     2     3    8.6780E-01  8.6780E-01   0.0000E+00  0.000E+00  0.000E+00  0.000E+00  1.06183E+03  3.617E-02  1.200E+01  6.000E-01  1.012E+00  1.062E+03
   1    7    6     2     4    0.0000E+00  0.0000E+00   0.0000E+00  0.000E+00  0.000E+00  0.000E+00  1.05708E+03  0.000E+00  1.200E+01  6.000E-01  1.000E+00  1.057E+03
   1    8    6     2     5    0.0000E+00  0.0000E+00   0.0000E+00  0.000E+00  0.000E+00  0.000E+00  1.05236E+03  0.000E+00  1.200E+01  6.000E-01  1.000E+00  1.052E+03
   1    3    5     3     1    1.0000E+01  2.8252E+00   7.1748E+00  0.000E+00  0.000E+00  0.000E+00  1.07555E+03  1.909E+00  9.636E+00  7.227E-01  1.955E+00  1.074E+03
   1    3    6     3     2    7.1748E+00  1.9446E+00   5.2302E+00  0.000E+00  0.000E+00  0.000E+00  1.07264E+03  1.727E+00  8.909E+00  6.682E-01  1.455E+00  1.071E+03
   1    3    7     3     3    5.2302E+00  9.3564E-01   4.2945E+00  0.000E+00  0.000E+00  0.000E+00  1.06987E+03  1.555E+00  8.218E+00  5.547E-01  8.433E-01  1.068E+03
   1    4    8     3     4    4.2945E+00  1.5801E+00   2.7144E+00  0.000E+00  0.000E+00  0.000E+00  1.06682E+03  1.364E+00  7.455E+00  6.709E-01  1.178E+00  1.065E+03
   1    5    8     3     5    2.7144E+00  1.5789E+00   1.1355E+00  0.000E+00  0.000E+00  0.000E+00  1.06362E+03  1.164E+00  6.655E+00  4.991E-01  1.582E+00  1.062E+03
   1    6    8     3     6    1.1355E+00  5.5980E-01   5.7571E-01  0.000E+00  0.000E+00  0.000E+00  1.06158E+03  1.036E+00  6.145E+00  1.844E-01  1.518E+00  1.061E+03
   1    5   10     4     1    1.0000E+01  9.0525E-01   9.0947E+00  0.000E+00  0.000E+00  0.000E+00  1.07835E+03  6.210E-01  1.000E+01  2.500E-01  1.207E+00  1.078E+03
   1    5    9     4     2    9.0947E+00  1.7835E+00   7.3113E+00  0.000E+00  0.000E+00  0.000E+00  1.07148E+03  5.670E-01  1.000E+01  5.000E-01  1.189E+00  1.071E+03
   1    6    8     4     3    7.3113E+00  1.2257E+00   6.0855E+00  0.000E+00  0.000E+00  0.000E+00  1.06368E+03  5.021E-01  1.000E+01  3.500E-01  1.167E+00  1.063E+03
   1    6    8     5     1    6.6613E+00  8.1263E-01   5.8486E+00  0.000E+00  0.000E+00  0.000E+00  1.05857E+03  5.699E-01  1.142E+01  4.566E-01  5.932E-01  1.058E+03
   1    7    7     5     2    5.8486E+00  1.6277E+00   4.2209E+00  0.000E+00  0.000E+00  0.000E+00  1.05403E+03  5.282E-01  1.002E+01  5.011E-01  1.083E+00  1.054E+03
   1    8    7     5     3    4.2209E+00  1.0154E+00   3.2055E+00  0.000E+00  0.000E+00  0.000E+00  1.04972E+03  4.748E-01  8.349E+00  2.922E-01  1.158E+00  1.049E+03
   1    8    6     5     4    3.2055E+00  5.8966E-01   2.6159E+00  0.000E+00  0.000E+00  0.000E+00  1.04669E+03  4.360E-01  7.214E+00  1.804E-01  1.090E+00  1.046E+03
   1    9    6     6     1    2.6159E+00  1.9431E+00   6.7274E-01  0.000E+00  0.000E+00  0.000E+00  1.04297E+03  2.385E-01  1.200E+01  6.000E-01  1.080E+00  1.043E+03
   1   10    7     6     2    6.7274E-01  6.7274E-01   0.0000E+00  0.000E+00  0.000E+00  0.000E+00  1.03821E+03  3.140E-02  1.200E+01  6.000E-01  1.010E+00  1.038E+03
   1   11    7     6     3    0.0000E+00  0.0000E+00   0.0000E+00  0.000E+00  0.000E+00  0.000E+00  1.03364E+03  0.000E+00  1.200E+01  6.000E-01  9.835E-01  1.034E+03
   1   12    7     6     4    0.0000E+00  0.0000E+00   0.0000E+00  0.000E+00  0.000E+00  0.000E+00  1.02909E+03  0.000E+00  1.200E+01  6.000E-01  2.606E-01  1.029E+03
   1   13    7     6     5    0.0000E+00 -7.7560E-01   7.7560E-01  0.000E+00  0.000E+00  0.000E+00  1.02601E+03  1.003E-01  1.200E+01  2.400E-01 -1.077E+00  1.026E+03
   1   14    9     7     1    1.5000E+02  2.1374E+00   1.4786E+02  0.000E+00  0.000E+00  0.000E+00  1.03987E+03  2.286E+00  5.529E+01  5.592E+00  1.274E-01  1.038E+03
   1   13    8     7     2    1.4786E+02  3.1063E+00   1.4476E+02  0.000E+00  0.000E+00  0.000E+00  1.03477E+03  2.272E+00  5.522E+01  6.144E+00  1.685E-01  1.032E+03
   1   13    7     7     3    1.4476E+02  2.4270E+00   1.4233E+02  0.000E+00  0.000E+00  0.000E+00  1.02968E+03  2.257E+00  5.516E+01  5.578E+00  1.450E-01  1.027E+03
   1   13    6     8     1    1.4310E+02  7.1032E-01   1.4239E+02  0.000E+00  0.000E+00  0.000E+00  1.02464E+03  2.765E+00  4.009E+01  4.086E+00  5.795E-02  1.022E+03
   1   13    5     8     2    1.4239E+02 -2.0513E+00   1.4445E+02  0.000E+00  0.000E+00  0.000E+00  1.01839E+03  2.770E+00  4.016E+01  4.093E+00 -1.671E-01  1.016E+03
   1   13    4     8     3    1.4445E+02 -3.7623E+00   1.4821E+02  0.000E+00  0.000E+00  0.000E+00  1.01217E+03  2.791E+00  4.047E+01  4.124E+00 -3.041E-01  1.009E+03
   1   13    3     8     4    1.4821E+02 -3.9794E+00   1.5219E+02  0.000E+00  0.000E+00  0.000E+00  1.00594E+03  2.818E+00  4.086E+01  4.164E+00 -3.185E-01  1.003E+03
   1   13    2     8     5    1.5219E+02 -1.9974E+00   1.5418E+02  0.000E+00  0.000E+00  0.000E+00  9.99714E+02  2.839E+00  4.117E+01  4.195E+00 -1.587E-01  9.969E+02
   1   13    1     8     6    1.5418E+02 -4.7575E-01   1.5466E+02  0.000E+00  0.000E+00  0.000E+00  9.94723E+02  2.848E+00  4.129E+01  2.525E+00 -6.281E-02  9.919E+02



 UBDSV3 SAVING "           GW ET" ON UNIT 61 AT TIME STEP 15, STRESS PERIOD 12
 UBDSV3 SAVING "    UZF RECHARGE" ON UNIT 61 AT TIME STEP 15, STRESS PERIOD 12
 UBDSV3 SAVING " SURFACE LEAKAGE" ON UNIT 61 AT TIME STEP 15, STRESS PERIOD 12
 UBDSV3 SAVING "       HORT+DUNN" ON UNIT 61 AT TIME STEP 15, STRESS PERIOD 12
 UBDSV3 SAVING "  STORAGE CHANGE" ON UNIT 61 AT TIME STEP 15, STRESS PERIOD 12


UNSATURATED ZONE PACKAGE VOLUMETRIC BUDGET FOR  TIME STEP    15 STRESS PERIOD   12
  ------------------------------------------------------------------------------



     CUMULATIVE VOLUMES      L**3       RATES FOR THIS TIME STEP      L**3/T
     ------------------                 ------------------------

           IN:                                      IN:
           ---                                      ---
        INFILTRATION =     1.5367887E+9          INFILTRATION =        8.4750000

          OUT:                                     OUT:
          ----                                     ----
              UZF ET =     2.1304410E+9                UZF ET =       29.5380731
        UZF RECHARGE =     3.8679186E+8          UZF RECHARGE =       11.2499605

            IN - OUT =    -9.8044419E+8              IN - OUT =      -32.3130337

          STORAGE:                                 STORAGE:
          --------                                 --------
      STORAGE CHANGE =    -9.8031624E+8        STORAGE CHANGE =      -32.4109272

 PERCENT DISCREPANCY =          -0.00     PERCENT DISCREPANCY =           0.24




 PERCENT DISCREPANCY IS DIFFERENCE BETWEEN IN-OUT MINUS CHANGE IN STORAGE
 DIVIDED BY THE AVERAGE OF IN AND OUT TIMES 100



1
              HEAD IN LAYER   1 AT END OF TIME STEP  15 IN STRESS PERIOD   12
  ---------------------------------------------------------------------------

           1       2       3       4       5       6       7       8       9      10
 ...................................................................................
   1  1092.37 1088.62 6999.00 6999.00 6999.00 6999.00 6999.00 6999.00 6999.00 6999.00
   2  1089.01 1085.69 1079.29 6999.00 6999.00 1073.63 1072.54 1070.97 6999.00 6999.00
   3  6999.00 1077.38 1074.53 1070.40 1070.89 1069.73 1068.19 1067.88 6999.00 6999.00
   4  1069.51 1068.75 1067.10 1063.68 1062.51 1061.22 1061.78 1064.46 1063.91 6999.00
   5  1065.40 1061.88 1059.39 1057.54 1057.25 1057.77 1057.60 1059.59 1063.01 1065.39
   6  1060.65 1056.02 1053.12 1051.72 1052.00 1053.32 1054.52 1056.79 1059.55 1063.66
   7  1056.94 1050.38 1047.40 1046.23 1046.83 1048.45 1050.78 1053.10 1054.37 6999.00
   8  6999.00 1042.92 1041.40 1040.73 1041.58 1043.42 1045.19 1047.54 1049.31 6999.00
   9  6999.00 1035.93 1035.35 1035.29 1036.46 1038.47 1039.35 1041.08 1043.88 6999.00
  10  6999.00 1028.78 1029.18 1030.18 1031.62 1033.35 1034.61 1036.48 1040.18 1045.30
  11  6999.00 1019.85 1021.63 1025.14 1027.16 1029.22 1030.69 1032.96 1036.40 6999.00
  12  1001.21 1008.88 1014.17 1019.07 1022.71 1025.93 1028.31 1031.01 1034.88 6999.00
  13   994.91 1000.19 1006.90 1013.08 1018.90 1024.47 1029.24 1034.27 1036.38 6999.00
  14  6999.00 1005.79 1011.36 1016.09 1021.14 1025.87 1030.11 1035.21 1039.48 6999.00
  15  6999.00 6999.00 1018.96 1022.40 1026.57 1029.77 6999.00 6999.00 6999.00 6999.00

 HEAD WILL BE SAVED ON UNIT   58 AT END OF TIME STEP    15 IN STRESS PERIOD     12



  -------------------------------------------------------------------------------------
  VOLUMETRIC BUDGET FOR ENTIRE MODEL AT END OF TIME STEP   15 IN STRESS PERIOD     12
  -------------------------------------------------------------------------------------

     CUMULATIVE VOLUMES      L**3       RATES FOR THIS TIME STEP      L**3/T
     ------------------                 ------------------------

           IN:                                      IN:
           ---                                      ---
             STORAGE =   128136792.2867               STORAGE =           0.8575
       CONSTANT HEAD =           0.0000         CONSTANT HEAD =           0.0000
               WELLS =           0.0000                 WELLS =           0.0000
     HEAD DEP BOUNDS =     6590365.4338       HEAD DEP BOUNDS =           0.2096
      STREAM LEAKAGE =  1361017964.1753        STREAM LEAKAGE =          43.3810
        UZF RECHARGE =   386791855.6405          UZF RECHARGE =          11.2500
               GW ET =           0.0000                 GW ET =           0.0000
     SURFACE LEAKAGE =           0.0000       SURFACE LEAKAGE =           0.0000

            TOTAL IN =  1882536977.5363              TOTAL IN =          55.6980

          OUT:                                     OUT:
          ----                                     ----
             STORAGE =   504286986.4879               STORAGE =          22.7595
       CONSTANT HEAD =           0.0000         CONSTANT HEAD =           0.0000
               WELLS =   394200000.0000                 WELLS =           0.0000
     HEAD DEP BOUNDS =     8307082.8009       HEAD DEP BOUNDS =           0.2626
      STREAM LEAKAGE =   421745314.5262        STREAM LEAKAGE =          13.0417
        UZF RECHARGE =           0.0000          UZF RECHARGE =           0.0000
               GW ET =   553864641.9826                 GW ET =          19.6312
     SURFACE LEAKAGE =           0.0000       SURFACE LEAKAGE =           0.0000

           TOTAL OUT =  1882404025.7977             TOTAL OUT =          55.6951

            IN - OUT =      132951.7386              IN - OUT =       2.9137E-03

 PERCENT DISCREPANCY =           0.01     PERCENT DISCREPANCY =           0.01


          TIME SUMMARY AT END OF TIME STEP    15 IN STRESS PERIOD     12
                    SECONDS     MINUTES      HOURS       DAYS        YEARS
                    -----------------------------------------------------------
   TIME STEP LENGTH 3.14103E+05  5235.0      87.251      3.6354     9.95332E-03
 STRESS PERIOD TIME 2.62800E+06  43800.      730.00      30.417     8.32763E-02
         TOTAL TIME 3.15360E+07 5.25600E+05  8760.0      365.00     0.99932    
 

 Final Remark:

   The solver successfully met the user supplied convergence criteria, HCLOSE and RCLOSE, for all 166 time steps.

   Please check the "VOLUMETRIC BUDGET FOR ENTIRE MODEL" to ensure that mass rate balance errors are acceptable for all time steps.

   The cumulative mass error for the entire simulation is 0.01 %




 Simulation finished at  


 Which had an elapsed run time of: 0.0 seconds


    OneWater Simulation Now Complete


