
      MMMMMMM                                       MM      MMM     MM
    MMM     MMM    MM      M   MMMMMMMM             LM     DM M     ML     MM     MMMMMMMMM  MMMMMMMM  MMMMMMMM
   MM         MM   MMM     M   MM                    MM    MM M     M     MMMM        M      M         MM     NM
   MM         MM   MM M    M   MM                    MM    M  MM   MM    MM  MM       M      M         MM      M
   MM         MM   MM  M   M   MMMMMMMM               MN  MM   M   MM   MM    MM      M      MMMMMMM   MMMMMMMMM
   MM         MM   MM   M  M   MM         MMMMMMM     MM  M    MM MM    MMMMMMMM      M      M         MM   MM
   MM         MM   MM    M M   MM                     LM MM    NM MM   MM      MM     M      M         MM    MM
    MM       NM    MM     MM   MM                      M M      M M   MN        MM    M      M         MM     MM
     MMMMMMMMN     MM      M   MMMMMMMM                7MM      7MM  MN          MM   M      MMMMMMMM  MM      MM


 MODFLOW-OWHM v2.0.01  


                        MODFLOW
            ONE-WATER HYDROLOGIC-FLOW MODEL

    U.S. GEOLOGICAL SURVEY MODULAR FINITE-DIFFERENCE 
           CONJUNCTIVE USE SIMULATION PROGRAM

                     Version 2.0

 Release: 01          4/23/2020

 Includes:
          MODFLOW-2005 Version 1.12.0   02/03/2017
          MODFLOW-FMP  Version 4.00.0   04/23/2017
          MODFLOW-SWR  Version 1.04.0   09/15/2016
          MODFLOW-SWI  Version 2.00.0   07/22/2013
          MODFLOW-LGR  Version 2.00.0   09/19/2013
          MODFLOW-NWT  Version 1.2.0    03/01/2020
          MODFLOW-CFP  Version 1.09.57  09/12/2017


 OneWater Simulation Initiated at  


 LIST FILE: ./output/swi2ex4sww.lst
      UNIT: 2

OPENING DATA FILES [DATA AND DATA(BINARY)]

OPENED DATA FILE ON UNIT     55 WITH FILENAME OF: ./output/swi2ex4sww.zta
OPENED DATA FILE ON UNIT     51 WITH FILENAME OF: ./output/swi2ex4sww.hds

OPENING PACKAGES

DIS  PACKAGE OPENED.
BAS6 PACKAGE OPENED.
GHB  PACKAGE OPENED.
WEL  PACKAGE OPENED.
UPW  PACKAGE OPENED.
NWT  PACKAGE OPENED.
SWI  PACKAGE OPENED.
OC   PACKAGE OPENED.

NOTIFICATION: A FILE UNIT NUMBER WAS FOUND FOR EITHER THE LIST FILE OR A PACAKGE.
IT WILL BE USED EVEN THOUGH UNIT NUMBERS FOR THE LIST FILE AND PACKAGES ARE NOW OPTIONAL.
[IT IS RECOMMENDED TO STILL USE A UNIT NUMBER FOR DATA and DATA(BINARY) ]


 BAS -- BASIC PACKAGE, VERSION OWHM INPUT READ FROM UNIT    13
 
MODFLOW was compiled using uniform precision (Precision => Number of meaningful digits in numbers)
Precision of REAL and DOUBLE PRECISION variables: 15

 DISCRETIZATION INPUT DATA READ FROM UNIT   11

-- READING DIS PACKAGE INPUT --

# swi2ex4sww
# MODFLOW-NWT Example problem documented in:
# Niswonger, R.G., Panday, Sorab, and Ibaraki, Motomu, 2011, MODFLOW-NWT, A Newton formulation for MODFLOW-2005: U.S. Geological Survey Techniques and Methods 6-A37, 44 p.
#
#      -Comments are preceded by a # sign
#
#-----------------------------------------------------------------------------------------------------------------------------------------------------
#
# Discretization file for MODFLOW, generated by Flopy.


*** DIS COORDINATE SYSTEM NOT SEPECIFIED ***
DEFAULT VALUES APPLIED ARE 0° ROTATION
WITH THE ORIGIN (0,0) LOCATED AT THE MODEL'S LOWER LEFT CORNER




DIS COORDINATE SYSTEM SEPECIFIED WITH:
GRID ROTATION OF 0.0°
WITH THE ORIGIN LOCATED AT THE OUTER MOST CORNER OF MODEL CELL [61,1] WITH:
X-COORDINATE:0.0
Y-COORDINATE:0.0
    2 LAYERS        61 ROWS        61 COLUMNS
      3 STRESS PERIOD(S) IN SIMULATION
 MODEL TIME UNIT IS DAYS
 MODEL LENGTH UNIT IS METERS
  Confining bed flag for each layer:
   0   0
         0  5.000e+01           (5G13.0)         -1                # DELR(NCOL)                                                                                                                                                                                                                                                                                                                                                                                                                                                                                                                                                                                                                                                                                                                  

                     DELR =   50.0000    
         0  5.000e+01           (5G13.0)         -1                # DELC(NROW)                                                                                                                                                                                                                                                                                                                                                                                                                                                                                                                                                                                                                                                                                                                  

                     DELC =   50.0000    



           TOP ELEVATION OF LAYER 1
 READING ON UNIT   11 WITH FORMAT:            (5G13.0) 



             MODEL LAYER BOTTOM EL. FOR LAYER   1
 READING ON UNIT   11 WITH FORMAT:            (5G13.0) 



             MODEL LAYER BOTTOM EL. FOR LAYER   2
 READING ON UNIT   11 WITH FORMAT:            (5G13.0) 


 STRESS PERIOD     LENGTH       TIME STEPS     MULTIPLIER FOR DELT    SS FLAG  (OPTIONAL TIME STEP LENGTH)
 ---------------------------------------------------------------------------------------------------
        1         73000.00       1000                  1.00000         SS
        2         4380.000        120                  1.00000         SS
        3         6570.000        180                  1.00000         SS

 STEADY-STATE SIMULATION




-- READING BAS PACKAGE INPUT --

# swi2ex4sww
# MODFLOW-NWT Example problem documented in:
# Niswonger, R.G., Panday, Sorab, and Ibaraki, Motomu, 2011, MODFLOW-NWT, A Newton formulation for MODFLOW-2005: U.S. Geological Survey Techniques and Methods 6-A37, 44 p.
#
# Input modified for MODFLOW-OWHM by adding a BAS OPTIONS BLOCK with output options.
#
#-----------------------------------------------------------------------------------------------------------------------------------------------------
#
# Basic package file for MODFLOW, generated by Flopy.
#


 THE BAS PACKAGE NOW DEFAULTS TO FREE FORMAT.
 USE OPTION "NOFREE" TO DISABLE FREE FORMAT.

 NOW READING BAS OPTIONS

 FOUND OPTION: BUDGETDB
 FOUND OPTION: CUMULATIVE_HEAD_CHANGE
    THIS OPTION IS ONLY USEFUL FOR MODEL RESULT COMPARISON WITH DIFFERENT CODE COMPARISONS.

 FOUND OPTION: PRINT_HEAD    SP    TS   FILE
                              3   180   ./output/swi2ex4sww_Head.txt

 THE MAX STORAGE FOR PROPERTIES DEFINED BY PARAMETERS IS: 
 MAX STORAGE OF PARAMETERS (MXPAR)  IS       2000
 MAX STORAGE OF INSTANCES  (MXINST) IS      50000
 MAX STORAGE OF CLUSTERS   (MXCLST) IS    2000000




                     BOUNDARY ARRAY FOR LAYER   1
 READING ON UNIT   13 WITH FORMAT:               (5I4) 



                     BOUNDARY ARRAY FOR LAYER   2
 READING ON UNIT   13 WITH FORMAT:               (5I4) 

 AQUIFER HEAD WILL BE SET TO -999.99 AT ALL NO-FLOW NODES (IBOUND=0).




                       INITIAL HEAD FOR LAYER   1
 READING ON UNIT   13 WITH FORMAT:            (5G13.0) 



                       INITIAL HEAD FOR LAYER   2
 READING ON UNIT   13 WITH FORMAT:            (5G13.0) 

-- READING OC PACKAGE INPUT --

# swi2ex4sww
# MODFLOW-NWT Example problem documented in:
# Niswonger, R.G., Panday, Sorab, and Ibaraki, Motomu, 2011, MODFLOW-NWT, A Newton formulation for MODFLOW-2005: U.S. Geological Survey Techniques and Methods 6-A37, 44 p.
#
#-----------------------------------------------------------------------------------------------------------------------------------------------------
#
# Output control package file for MODFLOW, generated by Flopy. Output control by words option


 OUTPUT CONTROL IS SPECIFIED ONLY AT TIME STEPS FOR WHICH OUTPUT IS DESIRED
 HEAD PRINT FORMAT CODE IS   0    DRAWDOWN PRINT FORMAT CODE IS   0
 HEADS WILL BE SAVED ON UNIT   51    DRAWDOWNS WILL BE SAVED ON UNIT    0  WATER BUDGETs WILL BE SAVED ON UNIT 

# swi2ex4sww
# MODFLOW-NWT Example problem documented in:
# Niswonger, R.G., Panday, Sorab, and Ibaraki, Motomu, 2011, MODFLOW-NWT, A Newton formulation for MODFLOW-2005: U.S. Geological Survey Techniques and Methods 6-A37, 44 p.
#
#      -Comments are preceded by a # sign
#
#-----------------------------------------------------------------------------------------------------------------------------------------------------
#
# NWT Input File
# SWI2 example problem 4 for MODFLOW-NWT
#HEADTOL  FLUXTOL MAXITEROUT THICKFACT LINMETH IPRNWT IBOTAV OPTIONS DBDREDUCE DBDINCREASE DBDGAMMA MOMFACT BACKFLAG MAXBACKITER BACKTOL BACKREDUCE


 NWT1 -- Newton Solver, VERSION OWHM
         INPUT READ FROM UNIT   27

 SIMPLE OPTION:
 DEFAULT SOLVER INPUT VALUES REFLECT NEARLY LINEAR MODEL
 ***XMD linear solver will be used***
 
   CONVERGENCE CRITERION OF   0.100000E-04 FOR HEAD SOLUTION
   AND A TOLERANCE OF   0.500000E-01 FOR FLOW SOLUTION AND 
   A MAXIMUM OF   200 OUTER ITERATIONS. 


   D-B-D REDUCTION FACTOR OF    0.970000E+00 AND 
   A D-B-D INCREASE FACTOR OF    0.100000E-03 AND 
   A D-B-D RELAXATION OF    0.000000E+00 AND 
   A MOMENTUM FACTOR OF    0.000000E+00 .


 ***BACKTRACKING IS INACTIVE***
NWT THIN CELL CHECK DISABLED
IBOUND ARRAY WILL REMAIN UNCHANGED
 XMD -- LINEAR SOLUTION BY XMD PACKAGE VERSION 1.30
     BY MOTOMU IBARAKI, OHIO STATE UNIVERSITY, COLOMBUS, OH
                 INPUT READ FROM UNIT    27
 ACCELERATION METHOD                    (IACL) =         1
 NODE ORDERING FLAG                   (NORDER) =         0
 LEVEL OF FILL                         (LEVEL) =         1
 MAXIMUM NUMBER OF ORTHOGONALIZATIONS  (NORTH) =         5
 INDEX FOR USING REDUCED SYSTEM      (IREDSYS) =         1
 RESID. REDUCTION CONVERGE CRITERION  (RRCTOL) =  0.000000E+00
 INDEX FOR USING DROP TOLERANCE     (IDROPTOL) =         1
 DROP TOLERANCE VALUE                  (EPSRN) =  0.500000E-02
 CONVERGENCE CRITERIA OF           (HCLOSEXMD) =  0.100000E-02
 MAX. NUMBER OF LINEAR ITERATIONS  (MXITERXMD) =        50


 UPW1 -- UPSTREAM WEIGHTING FLOW PACKAGE, VERSION OWHM
         INPUT READ FROM UNIT    15


-- READING UPW PACKAGE INPUT --

# swi2ex4sww
# MODFLOW-NWT Example problem documented in:
# Niswonger, R.G., Panday, Sorab, and Ibaraki, Motomu, 2011, MODFLOW-NWT, A Newton formulation for MODFLOW-2005: U.S. Geological Survey Techniques and Methods 6-A37, 44 p.
#
#      -Comments are preceded by a # sign
#
#-----------------------------------------------------------------------------------------------------------------------------------------------------
#
# LPF for MODFLOW, generated by Flopy.

 CELL-BY-CELL FLOWS WILL BE SAVED ON UNIT   53
 No named parameters

   LAYER FLAGS:
 LAYER       LAYTYP          LAYAVG    CHANI           LAYVKA           LAYWET
 ---------------------------------------------------------------------------
    1             0             0     1.000E+00             0             0
    2             0             0     1.000E+00             0             0

   INTERPRETATION OF LAYER FLAGS:
                        INTERBLOCK     HORIZONTAL    DATA IN
         LAYER TYPE   TRANSMISSIVITY   ANISOTROPY   ARRAY VKA   WETTABILITY
 LAYER   (LAYTYP)        (LAYAVG)      (CHANI)     (LAYVKA)       (LAYWET)
 ---------------------------------------------------------------------------
    1      CONFINED      HARMONIC     1.000E+00    VERTICAL K     NEVER-DRY
    2      CONFINED      HARMONIC     1.000E+00    VERTICAL K     NEVER-DRY

    HYD. COND. ALONG ROWS =   10.0000     FOR LAYER   1

      VERTICAL HYD. COND. =  0.200000     FOR LAYER   1

    HYD. COND. ALONG ROWS =   10.0000     FOR LAYER   2

      VERTICAL HYD. COND. =  0.200000     FOR LAYER   2

-- READING WEL PACKAGE INPUT --

# swi2ex4sww
# MODFLOW-NWT Example problem documented in:
# Niswonger, R.G., Panday, Sorab, and Ibaraki, Motomu, 2011, MODFLOW-NWT, A Newton formulation for MODFLOW-2005: U.S. Geological Survey Techniques and Methods 6-A37, 44 p.
#
#-----------------------------------------------------------------------------------------------------------------------------------------------------
#
# Well file for MODFLOW, generated by Flopy.


WEL -- WELL PACKAGE, VERSION OWHM INPUT READ FROM UNIT 20

 No named parameters

 NO TABFILE SPECIFIED FOR PACKAGE WEL  


 NO LINEFEEDS ARE SPECIFIED FOR PACKAGE WEL  


MAXIMUM OF 1683 ACTIVE WELLS AT ONE TIME


 NEGATIVE PUMPING RATES WILL BE REDUCED IF HEAD  FALLS WITHIN THE INTERVAL PHIRAMP TIMES THE CELL THICKNESS.
THE VALUE SPECIFIED FOR PHIRAMP IS 0.1
WELLS WITH REDUCED PUMPING WILL NOT BE REPORTED TO SEPARATE FILE, BUT INSTEAD WRITTEN TO LIST.

0 Well parameters

 GHB -- GENERAL-HEAD BOUNDARY PACKAGE, VERSION OWHM
         INPUT READ FROM UNIT   23

-- READING GHB PACKAGE INPUT --

# swi2ex4sww
# MODFLOW-NWT Example problem documented in:
# Niswonger, R.G., Panday, Sorab, and Ibaraki, Motomu, 2011, MODFLOW-NWT, A Newton formulation for MODFLOW-2005: U.S. Geological Survey Techniques and Methods 6-A37, 44 p.
#
#-----------------------------------------------------------------------------------------------------------------------------------------------------
#
# GHB for MODFLOW, generated by Flopy.

 No named parameters

 NO TABFILE SPECIFIED FOR PACKAGE GHB  


 NO LINEFEEDS ARE SPECIFIED FOR PACKAGE GHB  

 MAXIMUM OF   2040 ACTIVE GHB CELLS AT ONE TIME


     0 GHB parameters

-- READING SWI PACKAGE INPUT --

# swi2ex4sww
# MODFLOW-NWT Example problem documented in:
# Niswonger, R.G., Panday, Sorab, and Ibaraki, Motomu, 2011, MODFLOW-NWT, A Newton formulation for MODFLOW-2005: U.S. Geological Survey Techniques and Methods 6-A37, 44 p.
#
#      -Comments are preceded by a # sign
#
#-----------------------------------------------------------------------------------------------------------------------------------------------------
#
# Salt Water Intrusion package file for MODFLOW-2005, generated by Flopy.
#--Dataset 1



 SWI2 -- SWI PACKAGE, VERSION OWHM
 --------------------------------------------------
 SWI2 INPUT READ FROM UNIT 29




 SWI2 DATASET 1
 ----------------------------------------------------
 NUMBER OF SURFACES (NSRF):                         1
 TOTAL NUMBER OF ZONES:                             2
 DENSITY DISTRIBUTION OPTION (ISTRAT):              1
   VARIABLE DENSITY FLOW -- ISTRAT = 0
   STRATIFIED FLOW       -- ISTRAT = 1
 NUMBER OF SWI OBSERVATIONS (NOBS):                 0
 ZETA OUTPUT FILE UNIT NUMBER (ISWIZT):            55
 BUDGET OUTPUT FILE UNIT NUMBER (ISWICB):           0
 OBSERVATION OUTPUT FILE UNIT NUMBER (ISWIOBS):     0
 ----------------------------------------------------


 SWI2 DATASET 2A
 ----------------------------------------------------
 SOLVER (NSOLVER):                                  1
   SOLVER =                      DIRECT SOLVER (DE4)
 SOLVER PRINTOUT INTERVAL (IPRSOL):               999
 SOLVER OUTPUT FLAG (MUTSOL):                       3
   0 = PRINTING EVERY ITERATION
   1 = LIMITED (TOTAL NUMBER OF ITERATIONS)
   2 = NO PRINTING
   3 = ONLY IF CONVERGENCE FAILS
 ----------------------------------------------------


 SWI2 DATASET 3A
 ----------------------------------------------------
 MAXIMUM TOE SURFACE SLOPE (TOESLOPE):      0.500E-02
 MAXIMUM TIP SURFACE SLOPE (TIPSLOPE):      0.500E-02
 EXCESS SURFACE SLOPE FRACTION (ALPHA):     0.100    
 MINIMUM ZONE THICKNESS FRACTION (BETA):    0.100    
 ----------------------------------------------------
         29         1          (20G13.0)         -1                                                                                                                                                                                                                                                                                                                                                                                                                                                                                                                                                                                                                                                                                                                                              



                             NUZONE
 READING ON UNIT   29 WITH FORMAT:           (20G13.0) 



                   ZETA SURFACE  1  FOR LAYER   1
 READING ON UNIT   29 WITH FORMAT:           (61G13.0) 



                   ZETA SURFACE  1  FOR LAYER   2
 READING ON UNIT   29 WITH FORMAT:           (61G13.0) 

                      SSZ =  0.200000     FOR LAYER   1

                      SSZ =  0.200000     FOR LAYER   2



                            IZONENR FOR LAYER   1
 READING ON UNIT   29 WITH FORMAT:             (61I13) 



                            IZONENR FOR LAYER   2
 READING ON UNIT   29 WITH FORMAT:             (61I13) 


########################################################################################################

                           WARNING_MESSAGE

         THE FOLLOWING COMMENTS WERE PASSED TO THE WARNING ROUTINE

THE DESRIPTION OF THE WARNING IS:

DIS PACKAGE: THE GROUND SURFACE ELEVATION WAS NOT SPECIFIED WITH THE KEYWORD "SURFACE_ELEVATION"

BEFORE LOADING THE "TOP" ARRAY FOR LAYER 1
NOR WAS IT DEFINED WITH ANOTHER PACKAGE   (e.g. FMPs GLOBAL DIMENSION KEYWORD "SURFACE_ELEVATION")

OneWater WILL SET THE GROUND SURFACE ELEVATION (GSE)
TO THE TOP ELEVATION OF THE UPPER MOST ACTIVE CELL OR THE DIS TOP OF LAY1.

NOTE THAT SFR DOES USE GSE FOR ALL DIVERSION SEGMENTS
   WHEN "IRDFLG" IS SET TO 2 or -2.

########################################################################################################



1
                            STRESS PERIOD NO.      1, LENGTH =   73000.00    
                            -----------------------------------------------

                              NUMBER OF TIME STEPS =  1000

                               MULTIPLIER FOR DELT =     1.000

                            INITIAL TIME STEP SIZE =   73.00000    

PARAMETERS HAVE BEEN USED IN PACKAGES

THE CURRENT STORAGE FOR PARAMETERS IS: 
No. PARAMETER=         0 WITH MAX STORAGE (MXPAR)  OF      2000
No. CLUSTERS =         0 WITH MAX STORAGE (MXCLST) OF   2000000
No. INSTANCES=         0 WITH MAX STORAGE (MXINST) OF     50000

YOU CAN INCREASE/DECREASE STORAGE WITH BAS OPTION:
MAXPARAM  MXPAR  MXCLST MXINST

FYI, YOU CAN REDUCE RAM USUAGE WITH BAS OPTION
(NOTE THE THREE NUMBERS ARE A MINUMUM SIZE):
   MAXPARAM          1         1         1


 WEL PACKAGE STRESS PERIOD INFORMATION [BEFORE APPLICATION OF TABFILES]

 WELL NO.  LAYER   ROW   COL   STRESS RATE         
 --------------------------------------------------
      1      1     11     11   1.0000000    
      2      1     11     12   1.0000000    
      3      1     11     13   1.0000000    
      4      1     11     14   1.0000000    
      5      1     11     15   1.0000000    
      6      1     11     16   1.0000000    
      7      1     11     17   1.0000000    
      8      1     11     18   1.0000000    
      9      1     11     19   1.0000000    
     10      1     11     20   1.0000000    
     11      1     11     21   1.0000000    
     12      1     11     22   1.0000000    
     13      1     11     23   1.0000000    
     14      1     11     24   1.0000000    
     15      1     11     25   1.0000000    
     16      1     11     26   1.0000000    
     17      1     11     27   1.0000000    
     18      1     11     28   1.0000000    
     19      1     11     29   1.0000000    
     20      1     11     30   1.0000000    
     21      1     11     31   1.0000000    
     22      1     11     32   1.0000000    
     23      1     11     33   1.0000000    
     24      1     11     34   1.0000000    
     25      1     11     35   1.0000000    
     26      1     11     36   1.0000000    
     27      1     11     37   1.0000000    
     28      1     11     38   1.0000000    
     29      1     11     39   1.0000000    
     30      1     11     40   1.0000000    
     31      1     11     41   1.0000000    
     32      1     11     42   1.0000000    
     33      1     11     43   1.0000000    
     34      1     11     44   1.0000000    
     35      1     11     45   1.0000000    
     36      1     11     46   1.0000000    
     37      1     11     47   1.0000000    
     38      1     11     48   1.0000000    
     39      1     11     49   1.0000000    
     40      1     11     50   1.0000000    
     41      1     11     51   1.0000000    
     42      1     12     11   1.0000000    
     43      1     12     12   1.0000000    
     44      1     12     13   1.0000000    
     45      1     12     14   1.0000000    
     46      1     12     15   1.0000000    
     47      1     12     16   1.0000000    
     48      1     12     17   1.0000000    
     49      1     12     18   1.0000000    
     50      1     12     19   1.0000000    
     51      1     12     20   1.0000000    
     52      1     12     21   1.0000000    
     53      1     12     22   1.0000000    
     54      1     12     23   1.0000000    
     55      1     12     24   1.0000000    
     56      1     12     25   1.0000000    
     57      1     12     26   1.0000000    
     58      1     12     27   1.0000000    
     59      1     12     28   1.0000000    
     60      1     12     29   1.0000000    
     61      1     12     30   1.0000000    
     62      1     12     31   1.0000000    
     63      1     12     32   1.0000000    
     64      1     12     33   1.0000000    
     65      1     12     34   1.0000000    
     66      1     12     35   1.0000000    
     67      1     12     36   1.0000000    
     68      1     12     37   1.0000000    
     69      1     12     38   1.0000000    
     70      1     12     39   1.0000000    
     71      1     12     40   1.0000000    
     72      1     12     41   1.0000000    
     73      1     12     42   1.0000000    
     74      1     12     43   1.0000000    
     75      1     12     44   1.0000000    
     76      1     12     45   1.0000000    
     77      1     12     46   1.0000000    
     78      1     12     47   1.0000000    
     79      1     12     48   1.0000000    
     80      1     12     49   1.0000000    
     81      1     12     50   1.0000000    
     82      1     12     51   1.0000000    
     83      1     13     11   1.0000000    
     84      1     13     12   1.0000000    
     85      1     13     13   1.0000000    
     86      1     13     14   1.0000000    
     87      1     13     15   1.0000000    
     88      1     13     16   1.0000000    
     89      1     13     17   1.0000000    
     90      1     13     18   1.0000000    
     91      1     13     19   1.0000000    
     92      1     13     20   1.0000000    
     93      1     13     21   1.0000000    
     94      1     13     22   1.0000000    
     95      1     13     23   1.0000000    
     96      1     13     24   1.0000000    
     97      1     13     25   1.0000000    
     98      1     13     26   1.0000000    
     99      1     13     27   1.0000000    
    100      1     13     28   1.0000000    
    101      1     13     29   1.0000000    
    102      1     13     30   1.0000000    
    103      1     13     31   1.0000000    
    104      1     13     32   1.0000000    
    105      1     13     33   1.0000000    
    106      1     13     34   1.0000000    
    107      1     13     35   1.0000000    
    108      1     13     36   1.0000000    
    109      1     13     37   1.0000000    
    110      1     13     38   1.0000000    
    111      1     13     39   1.0000000    
    112      1     13     40   1.0000000    
    113      1     13     41   1.0000000    
    114      1     13     42   1.0000000    
    115      1     13     43   1.0000000    
    116      1     13     44   1.0000000    
    117      1     13     45   1.0000000    
    118      1     13     46   1.0000000    
    119      1     13     47   1.0000000    
    120      1     13     48   1.0000000    
    121      1     13     49   1.0000000    
    122      1     13     50   1.0000000    
    123      1     13     51   1.0000000    
    124      1     14     11   1.0000000    
    125      1     14     12   1.0000000    
    126      1     14     13   1.0000000    
    127      1     14     14   1.0000000    
    128      1     14     15   1.0000000    
    129      1     14     16   1.0000000    
    130      1     14     17   1.0000000    
    131      1     14     18   1.0000000    
    132      1     14     19   1.0000000    
    133      1     14     20   1.0000000    
    134      1     14     21   1.0000000    
    135      1     14     22   1.0000000    
    136      1     14     23   1.0000000    
    137      1     14     24   1.0000000    
    138      1     14     25   1.0000000    
    139      1     14     26   1.0000000    
    140      1     14     27   1.0000000    
    141      1     14     28   1.0000000    
    142      1     14     29   1.0000000    
    143      1     14     30   1.0000000    
    144      1     14     31   1.0000000    
    145      1     14     32   1.0000000    
    146      1     14     33   1.0000000    
    147      1     14     34   1.0000000    
    148      1     14     35   1.0000000    
    149      1     14     36   1.0000000    
    150      1     14     37   1.0000000    
    151      1     14     38   1.0000000    
    152      1     14     39   1.0000000    
    153      1     14     40   1.0000000    
    154      1     14     41   1.0000000    
    155      1     14     42   1.0000000    
    156      1     14     43   1.0000000    
    157      1     14     44   1.0000000    
    158      1     14     45   1.0000000    
    159      1     14     46   1.0000000    
    160      1     14     47   1.0000000    
    161      1     14     48   1.0000000    
    162      1     14     49   1.0000000    
    163      1     14     50   1.0000000    
    164      1     14     51   1.0000000    
    165      1     15     11   1.0000000    
    166      1     15     12   1.0000000    
    167      1     15     13   1.0000000    
    168      1     15     14   1.0000000    
    169      1     15     15   1.0000000    
    170      1     15     16   1.0000000    
    171      1     15     17   1.0000000    
    172      1     15     18   1.0000000    
    173      1     15     19   1.0000000    
    174      1     15     20   1.0000000    
    175      1     15     21   1.0000000    
    176      1     15     22   1.0000000    
    177      1     15     23   1.0000000    
    178      1     15     24   1.0000000    
    179      1     15     25   1.0000000    
    180      1     15     26   1.0000000    
    181      1     15     27   1.0000000    
    182      1     15     28   1.0000000    
    183      1     15     29   1.0000000    
    184      1     15     30   1.0000000    
    185      1     15     31   1.0000000    
    186      1     15     32   1.0000000    
    187      1     15     33   1.0000000    
    188      1     15     34   1.0000000    
    189      1     15     35   1.0000000    
    190      1     15     36   1.0000000    
    191      1     15     37   1.0000000    
    192      1     15     38   1.0000000    
    193      1     15     39   1.0000000    
    194      1     15     40   1.0000000    
    195      1     15     41   1.0000000    
    196      1     15     42   1.0000000    
    197      1     15     43   1.0000000    
    198      1     15     44   1.0000000    
    199      1     15     45   1.0000000    
    200      1     15     46   1.0000000    
    201      1     15     47   1.0000000    
    202      1     15     48   1.0000000    
    203      1     15     49   1.0000000    
    204      1     15     50   1.0000000    
    205      1     15     51   1.0000000    
    206      1     16     11   1.0000000    
    207      1     16     12   1.0000000    
    208      1     16     13   1.0000000    
    209      1     16     14   1.0000000    
    210      1     16     15   1.0000000    
    211      1     16     16   1.0000000    
    212      1     16     17   1.0000000    
    213      1     16     18   1.0000000    
    214      1     16     19   1.0000000    
    215      1     16     20   1.0000000    
    216      1     16     21   1.0000000    
    217      1     16     22   1.0000000    
    218      1     16     23   1.0000000    
    219      1     16     24   1.0000000    
    220      1     16     25   1.0000000    
    221      1     16     26   1.0000000    
    222      1     16     27   1.0000000    
    223      1     16     28   1.0000000    
    224      1     16     29   1.0000000    
    225      1     16     30   1.0000000    
    226      1     16     31   1.0000000    
    227      1     16     32   1.0000000    
    228      1     16     33   1.0000000    
    229      1     16     34   1.0000000    
    230      1     16     35   1.0000000    
    231      1     16     36   1.0000000    
    232      1     16     37   1.0000000    
    233      1     16     38   1.0000000    
    234      1     16     39   1.0000000    
    235      1     16     40   1.0000000    
    236      1     16     41   1.0000000    
    237      1     16     42   1.0000000    
    238      1     16     43   1.0000000    
    239      1     16     44   1.0000000    
    240      1     16     45   1.0000000    
    241      1     16     46   1.0000000    
    242      1     16     47   1.0000000    
    243      1     16     48   1.0000000    
    244      1     16     49   1.0000000    
    245      1     16     50   1.0000000    
    246      1     16     51   1.0000000    
    247      1     17     11   1.0000000    
    248      1     17     12   1.0000000    
    249      1     17     13   1.0000000    
    250      1     17     14   1.0000000    
    251      1     17     15   1.0000000    
    252      1     17     16   1.0000000    
    253      1     17     17   1.0000000    
    254      1     17     18   1.0000000    
    255      1     17     19   1.0000000    
    256      1     17     20   1.0000000    
    257      1     17     21   1.0000000    
    258      1     17     22   1.0000000    
    259      1     17     23   1.0000000    
    260      1     17     24   1.0000000    
    261      1     17     25   1.0000000    
    262      1     17     26   1.0000000    
    263      1     17     27   1.0000000    
    264      1     17     28   1.0000000    
    265      1     17     29   1.0000000    
    266      1     17     30   1.0000000    
    267      1     17     31   1.0000000    
    268      1     17     32   1.0000000    
    269      1     17     33   1.0000000    
    270      1     17     34   1.0000000    
    271      1     17     35   1.0000000    
    272      1     17     36   1.0000000    
    273      1     17     37   1.0000000    
    274      1     17     38   1.0000000    
    275      1     17     39   1.0000000    
    276      1     17     40   1.0000000    
    277      1     17     41   1.0000000    
    278      1     17     42   1.0000000    
    279      1     17     43   1.0000000    
    280      1     17     44   1.0000000    
    281      1     17     45   1.0000000    
    282      1     17     46   1.0000000    
    283      1     17     47   1.0000000    
    284      1     17     48   1.0000000    
    285      1     17     49   1.0000000    
    286      1     17     50   1.0000000    
    287      1     17     51   1.0000000    
    288      1     18     11   1.0000000    
    289      1     18     12   1.0000000    
    290      1     18     13   1.0000000    
    291      1     18     14   1.0000000    
    292      1     18     15   1.0000000    
    293      1     18     16   1.0000000    
    294      1     18     17   1.0000000    
    295      1     18     18   1.0000000    
    296      1     18     19   1.0000000    
    297      1     18     20   1.0000000    
    298      1     18     21   1.0000000    
    299      1     18     22   1.0000000    
    300      1     18     23   1.0000000    
    301      1     18     24   1.0000000    
    302      1     18     25   1.0000000    
    303      1     18     26   1.0000000    
    304      1     18     27   1.0000000    
    305      1     18     28   1.0000000    
    306      1     18     29   1.0000000    
    307      1     18     30   1.0000000    
    308      1     18     31   1.0000000    
    309      1     18     32   1.0000000    
    310      1     18     33   1.0000000    
    311      1     18     34   1.0000000    
    312      1     18     35   1.0000000    
    313      1     18     36   1.0000000    
    314      1     18     37   1.0000000    
    315      1     18     38   1.0000000    
    316      1     18     39   1.0000000    
    317      1     18     40   1.0000000    
    318      1     18     41   1.0000000    
    319      1     18     42   1.0000000    
    320      1     18     43   1.0000000    
    321      1     18     44   1.0000000    
    322      1     18     45   1.0000000    
    323      1     18     46   1.0000000    
    324      1     18     47   1.0000000    
    325      1     18     48   1.0000000    
    326      1     18     49   1.0000000    
    327      1     18     50   1.0000000    
    328      1     18     51   1.0000000    
    329      1     19     11   1.0000000    
    330      1     19     12   1.0000000    
    331      1     19     13   1.0000000    
    332      1     19     14   1.0000000    
    333      1     19     15   1.0000000    
    334      1     19     16   1.0000000    
    335      1     19     17   1.0000000    
    336      1     19     18   1.0000000    
    337      1     19     19   1.0000000    
    338      1     19     20   1.0000000    
    339      1     19     21   1.0000000    
    340      1     19     22   1.0000000    
    341      1     19     23   1.0000000    
    342      1     19     24   1.0000000    
    343      1     19     25   1.0000000    
    344      1     19     26   1.0000000    
    345      1     19     27   1.0000000    
    346      1     19     28   1.0000000    
    347      1     19     29   1.0000000    
    348      1     19     30   1.0000000    
    349      1     19     31   1.0000000    
    350      1     19     32   1.0000000    
    351      1     19     33   1.0000000    
    352      1     19     34   1.0000000    
    353      1     19     35   1.0000000    
    354      1     19     36   1.0000000    
    355      1     19     37   1.0000000    
    356      1     19     38   1.0000000    
    357      1     19     39   1.0000000    
    358      1     19     40   1.0000000    
    359      1     19     41   1.0000000    
    360      1     19     42   1.0000000    
    361      1     19     43   1.0000000    
    362      1     19     44   1.0000000    
    363      1     19     45   1.0000000    
    364      1     19     46   1.0000000    
    365      1     19     47   1.0000000    
    366      1     19     48   1.0000000    
    367      1     19     49   1.0000000    
    368      1     19     50   1.0000000    
    369      1     19     51   1.0000000    
    370      1     20     11   1.0000000    
    371      1     20     12   1.0000000    
    372      1     20     13   1.0000000    
    373      1     20     14   1.0000000    
    374      1     20     15   1.0000000    
    375      1     20     16   1.0000000    
    376      1     20     17   1.0000000    
    377      1     20     18   1.0000000    
    378      1     20     19   1.0000000    
    379      1     20     20   1.0000000    
    380      1     20     21   1.0000000    
    381      1     20     22   1.0000000    
    382      1     20     23   1.0000000    
    383      1     20     24   1.0000000    
    384      1     20     25   1.0000000    
    385      1     20     26   1.0000000    
    386      1     20     27   1.0000000    
    387      1     20     28   1.0000000    
    388      1     20     29   1.0000000    
    389      1     20     30   1.0000000    
    390      1     20     31   1.0000000    
    391      1     20     32   1.0000000    
    392      1     20     33   1.0000000    
    393      1     20     34   1.0000000    
    394      1     20     35   1.0000000    
    395      1     20     36   1.0000000    
    396      1     20     37   1.0000000    
    397      1     20     38   1.0000000    
    398      1     20     39   1.0000000    
    399      1     20     40   1.0000000    
    400      1     20     41   1.0000000    
    401      1     20     42   1.0000000    
    402      1     20     43   1.0000000    
    403      1     20     44   1.0000000    
    404      1     20     45   1.0000000    
    405      1     20     46   1.0000000    
    406      1     20     47   1.0000000    
    407      1     20     48   1.0000000    
    408      1     20     49   1.0000000    
    409      1     20     50   1.0000000    
    410      1     20     51   1.0000000    
    411      1     21     11   1.0000000    
    412      1     21     12   1.0000000    
    413      1     21     13   1.0000000    
    414      1     21     14   1.0000000    
    415      1     21     15   1.0000000    
    416      1     21     16   1.0000000    
    417      1     21     17   1.0000000    
    418      1     21     18   1.0000000    
    419      1     21     19   1.0000000    
    420      1     21     20   1.0000000    
    421      1     21     21   1.0000000    
    422      1     21     22   1.0000000    
    423      1     21     23   1.0000000    
    424      1     21     24   1.0000000    
    425      1     21     25   1.0000000    
    426      1     21     26   1.0000000    
    427      1     21     27   1.0000000    
    428      1     21     28   1.0000000    
    429      1     21     29   1.0000000    
    430      1     21     30   1.0000000    
    431      1     21     31   1.0000000    
    432      1     21     32   1.0000000    
    433      1     21     33   1.0000000    
    434      1     21     34   1.0000000    
    435      1     21     35   1.0000000    
    436      1     21     36   1.0000000    
    437      1     21     37   1.0000000    
    438      1     21     38   1.0000000    
    439      1     21     39   1.0000000    
    440      1     21     40   1.0000000    
    441      1     21     41   1.0000000    
    442      1     21     42   1.0000000    
    443      1     21     43   1.0000000    
    444      1     21     44   1.0000000    
    445      1     21     45   1.0000000    
    446      1     21     46   1.0000000    
    447      1     21     47   1.0000000    
    448      1     21     48   1.0000000    
    449      1     21     49   1.0000000    
    450      1     21     50   1.0000000    
    451      1     21     51   1.0000000    
    452      1     22     11   1.0000000    
    453      1     22     12   1.0000000    
    454      1     22     13   1.0000000    
    455      1     22     14   1.0000000    
    456      1     22     15   1.0000000    
    457      1     22     16   1.0000000    
    458      1     22     17   1.0000000    
    459      1     22     18   1.0000000    
    460      1     22     19   1.0000000    
    461      1     22     20   1.0000000    
    462      1     22     21   1.0000000    
    463      1     22     22   1.0000000    
    464      1     22     23   1.0000000    
    465      1     22     24   1.0000000    
    466      1     22     25   1.0000000    
    467      1     22     26   1.0000000    
    468      1     22     27   1.0000000    
    469      1     22     28   1.0000000    
    470      1     22     29   1.0000000    
    471      1     22     30   1.0000000    
    472      1     22     31   1.0000000    
    473      1     22     32   1.0000000    
    474      1     22     33   1.0000000    
    475      1     22     34   1.0000000    
    476      1     22     35   1.0000000    
    477      1     22     36   1.0000000    
    478      1     22     37   1.0000000    
    479      1     22     38   1.0000000    
    480      1     22     39   1.0000000    
    481      1     22     40   1.0000000    
    482      1     22     41   1.0000000    
    483      1     22     42   1.0000000    
    484      1     22     43   1.0000000    
    485      1     22     44   1.0000000    
    486      1     22     45   1.0000000    
    487      1     22     46   1.0000000    
    488      1     22     47   1.0000000    
    489      1     22     48   1.0000000    
    490      1     22     49   1.0000000    
    491      1     22     50   1.0000000    
    492      1     22     51   1.0000000    
    493      1     23     11   1.0000000    
    494      1     23     12   1.0000000    
    495      1     23     13   1.0000000    
    496      1     23     14   1.0000000    
    497      1     23     15   1.0000000    
    498      1     23     16   1.0000000    
    499      1     23     17   1.0000000    
    500      1     23     18   1.0000000    
    501      1     23     19   1.0000000    
    502      1     23     20   1.0000000    
    503      1     23     21   1.0000000    
    504      1     23     22   1.0000000    
    505      1     23     23   1.0000000    
    506      1     23     24   1.0000000    
    507      1     23     25   1.0000000    
    508      1     23     26   1.0000000    
    509      1     23     27   1.0000000    
    510      1     23     28   1.0000000    
    511      1     23     29   1.0000000    
    512      1     23     30   1.0000000    
    513      1     23     31   1.0000000    
    514      1     23     32   1.0000000    
    515      1     23     33   1.0000000    
    516      1     23     34   1.0000000    
    517      1     23     35   1.0000000    
    518      1     23     36   1.0000000    
    519      1     23     37   1.0000000    
    520      1     23     38   1.0000000    
    521      1     23     39   1.0000000    
    522      1     23     40   1.0000000    
    523      1     23     41   1.0000000    
    524      1     23     42   1.0000000    
    525      1     23     43   1.0000000    
    526      1     23     44   1.0000000    
    527      1     23     45   1.0000000    
    528      1     23     46   1.0000000    
    529      1     23     47   1.0000000    
    530      1     23     48   1.0000000    
    531      1     23     49   1.0000000    
    532      1     23     50   1.0000000    
    533      1     23     51   1.0000000    
    534      1     24     11   1.0000000    
    535      1     24     12   1.0000000    
    536      1     24     13   1.0000000    
    537      1     24     14   1.0000000    
    538      1     24     15   1.0000000    
    539      1     24     16   1.0000000    
    540      1     24     17   1.0000000    
    541      1     24     18   1.0000000    
    542      1     24     19   1.0000000    
    543      1     24     20   1.0000000    
    544      1     24     21   1.0000000    
    545      1     24     22   1.0000000    
    546      1     24     23   1.0000000    
    547      1     24     24   1.0000000    
    548      1     24     25   1.0000000    
    549      1     24     26   1.0000000    
    550      1     24     27   1.0000000    
    551      1     24     28   1.0000000    
    552      1     24     29   1.0000000    
    553      1     24     30   1.0000000    
    554      1     24     31   1.0000000    
    555      1     24     32   1.0000000    
    556      1     24     33   1.0000000    
    557      1     24     34   1.0000000    
    558      1     24     35   1.0000000    
    559      1     24     36   1.0000000    
    560      1     24     37   1.0000000    
    561      1     24     38   1.0000000    
    562      1     24     39   1.0000000    
    563      1     24     40   1.0000000    
    564      1     24     41   1.0000000    
    565      1     24     42   1.0000000    
    566      1     24     43   1.0000000    
    567      1     24     44   1.0000000    
    568      1     24     45   1.0000000    
    569      1     24     46   1.0000000    
    570      1     24     47   1.0000000    
    571      1     24     48   1.0000000    
    572      1     24     49   1.0000000    
    573      1     24     50   1.0000000    
    574      1     24     51   1.0000000    
    575      1     25     11   1.0000000    
    576      1     25     12   1.0000000    
    577      1     25     13   1.0000000    
    578      1     25     14   1.0000000    
    579      1     25     15   1.0000000    
    580      1     25     16   1.0000000    
    581      1     25     17   1.0000000    
    582      1     25     18   1.0000000    
    583      1     25     19   1.0000000    
    584      1     25     20   1.0000000    
    585      1     25     21   1.0000000    
    586      1     25     22   1.0000000    
    587      1     25     23   1.0000000    
    588      1     25     24   1.0000000    
    589      1     25     25   1.0000000    
    590      1     25     26   1.0000000    
    591      1     25     27   1.0000000    
    592      1     25     28   1.0000000    
    593      1     25     29   1.0000000    
    594      1     25     30   1.0000000    
    595      1     25     31   1.0000000    
    596      1     25     32   1.0000000    
    597      1     25     33   1.0000000    
    598      1     25     34   1.0000000    
    599      1     25     35   1.0000000    
    600      1     25     36   1.0000000    
    601      1     25     37   1.0000000    
    602      1     25     38   1.0000000    
    603      1     25     39   1.0000000    
    604      1     25     40   1.0000000    
    605      1     25     41   1.0000000    
    606      1     25     42   1.0000000    
    607      1     25     43   1.0000000    
    608      1     25     44   1.0000000    
    609      1     25     45   1.0000000    
    610      1     25     46   1.0000000    
    611      1     25     47   1.0000000    
    612      1     25     48   1.0000000    
    613      1     25     49   1.0000000    
    614      1     25     50   1.0000000    
    615      1     25     51   1.0000000    
    616      1     26     11   1.0000000    
    617      1     26     12   1.0000000    
    618      1     26     13   1.0000000    
    619      1     26     14   1.0000000    
    620      1     26     15   1.0000000    
    621      1     26     16   1.0000000    
    622      1     26     17   1.0000000    
    623      1     26     18   1.0000000    
    624      1     26     19   1.0000000    
    625      1     26     20   1.0000000    
    626      1     26     21   1.0000000    
    627      1     26     22   1.0000000    
    628      1     26     23   1.0000000    
    629      1     26     24   1.0000000    
    630      1     26     25   1.0000000    
    631      1     26     26   1.0000000    
    632      1     26     27   1.0000000    
    633      1     26     28   1.0000000    
    634      1     26     29   1.0000000    
    635      1     26     30   1.0000000    
    636      1     26     31   1.0000000    
    637      1     26     32   1.0000000    
    638      1     26     33   1.0000000    
    639      1     26     34   1.0000000    
    640      1     26     35   1.0000000    
    641      1     26     36   1.0000000    
    642      1     26     37   1.0000000    
    643      1     26     38   1.0000000    
    644      1     26     39   1.0000000    
    645      1     26     40   1.0000000    
    646      1     26     41   1.0000000    
    647      1     26     42   1.0000000    
    648      1     26     43   1.0000000    
    649      1     26     44   1.0000000    
    650      1     26     45   1.0000000    
    651      1     26     46   1.0000000    
    652      1     26     47   1.0000000    
    653      1     26     48   1.0000000    
    654      1     26     49   1.0000000    
    655      1     26     50   1.0000000    
    656      1     26     51   1.0000000    
    657      1     27     11   1.0000000    
    658      1     27     12   1.0000000    
    659      1     27     13   1.0000000    
    660      1     27     14   1.0000000    
    661      1     27     15   1.0000000    
    662      1     27     16   1.0000000    
    663      1     27     17   1.0000000    
    664      1     27     18   1.0000000    
    665      1     27     19   1.0000000    
    666      1     27     20   1.0000000    
    667      1     27     21   1.0000000    
    668      1     27     22   1.0000000    
    669      1     27     23   1.0000000    
    670      1     27     24   1.0000000    
    671      1     27     25   1.0000000    
    672      1     27     26   1.0000000    
    673      1     27     27   1.0000000    
    674      1     27     28   1.0000000    
    675      1     27     29   1.0000000    
    676      1     27     30   1.0000000    
    677      1     27     31   1.0000000    
    678      1     27     32   1.0000000    
    679      1     27     33   1.0000000    
    680      1     27     34   1.0000000    
    681      1     27     35   1.0000000    
    682      1     27     36   1.0000000    
    683      1     27     37   1.0000000    
    684      1     27     38   1.0000000    
    685      1     27     39   1.0000000    
    686      1     27     40   1.0000000    
    687      1     27     41   1.0000000    
    688      1     27     42   1.0000000    
    689      1     27     43   1.0000000    
    690      1     27     44   1.0000000    
    691      1     27     45   1.0000000    
    692      1     27     46   1.0000000    
    693      1     27     47   1.0000000    
    694      1     27     48   1.0000000    
    695      1     27     49   1.0000000    
    696      1     27     50   1.0000000    
    697      1     27     51   1.0000000    
    698      1     28     11   1.0000000    
    699      1     28     12   1.0000000    
    700      1     28     13   1.0000000    
    701      1     28     14   1.0000000    
    702      1     28     15   1.0000000    
    703      1     28     16   1.0000000    
    704      1     28     17   1.0000000    
    705      1     28     18   1.0000000    
    706      1     28     19   1.0000000    
    707      1     28     20   1.0000000    
    708      1     28     21   1.0000000    
    709      1     28     22   1.0000000    
    710      1     28     23   1.0000000    
    711      1     28     24   1.0000000    
    712      1     28     25   1.0000000    
    713      1     28     26   1.0000000    
    714      1     28     27   1.0000000    
    715      1     28     28   1.0000000    
    716      1     28     29   1.0000000    
    717      1     28     30   1.0000000    
    718      1     28     31   1.0000000    
    719      1     28     32   1.0000000    
    720      1     28     33   1.0000000    
    721      1     28     34   1.0000000    
    722      1     28     35   1.0000000    
    723      1     28     36   1.0000000    
    724      1     28     37   1.0000000    
    725      1     28     38   1.0000000    
    726      1     28     39   1.0000000    
    727      1     28     40   1.0000000    
    728      1     28     41   1.0000000    
    729      1     28     42   1.0000000    
    730      1     28     43   1.0000000    
    731      1     28     44   1.0000000    
    732      1     28     45   1.0000000    
    733      1     28     46   1.0000000    
    734      1     28     47   1.0000000    
    735      1     28     48   1.0000000    
    736      1     28     49   1.0000000    
    737      1     28     50   1.0000000    
    738      1     28     51   1.0000000    
    739      1     29     11   1.0000000    
    740      1     29     12   1.0000000    
    741      1     29     13   1.0000000    
    742      1     29     14   1.0000000    
    743      1     29     15   1.0000000    
    744      1     29     16   1.0000000    
    745      1     29     17   1.0000000    
    746      1     29     18   1.0000000    
    747      1     29     19   1.0000000    
    748      1     29     20   1.0000000    
    749      1     29     21   1.0000000    
    750      1     29     22   1.0000000    
    751      1     29     23   1.0000000    
    752      1     29     24   1.0000000    
    753      1     29     25   1.0000000    
    754      1     29     26   1.0000000    
    755      1     29     27   1.0000000    
    756      1     29     28   1.0000000    
    757      1     29     29   1.0000000    
    758      1     29     30   1.0000000    
    759      1     29     31   1.0000000    
    760      1     29     32   1.0000000    
    761      1     29     33   1.0000000    
    762      1     29     34   1.0000000    
    763      1     29     35   1.0000000    
    764      1     29     36   1.0000000    
    765      1     29     37   1.0000000    
    766      1     29     38   1.0000000    
    767      1     29     39   1.0000000    
    768      1     29     40   1.0000000    
    769      1     29     41   1.0000000    
    770      1     29     42   1.0000000    
    771      1     29     43   1.0000000    
    772      1     29     44   1.0000000    
    773      1     29     45   1.0000000    
    774      1     29     46   1.0000000    
    775      1     29     47   1.0000000    
    776      1     29     48   1.0000000    
    777      1     29     49   1.0000000    
    778      1     29     50   1.0000000    
    779      1     29     51   1.0000000    
    780      1     30     11   1.0000000    
    781      1     30     12   1.0000000    
    782      1     30     13   1.0000000    
    783      1     30     14   1.0000000    
    784      1     30     15   1.0000000    
    785      1     30     16   1.0000000    
    786      1     30     17   1.0000000    
    787      1     30     18   1.0000000    
    788      1     30     19   1.0000000    
    789      1     30     20   1.0000000    
    790      1     30     21   1.0000000    
    791      1     30     22   1.0000000    
    792      1     30     23   1.0000000    
    793      1     30     24   1.0000000    
    794      1     30     25   1.0000000    
    795      1     30     26   1.0000000    
    796      1     30     27   1.0000000    
    797      1     30     28   1.0000000    
    798      1     30     29   1.0000000    
    799      1     30     30   1.0000000    
    800      1     30     31   1.0000000    
    801      1     30     32   1.0000000    
    802      1     30     33   1.0000000    
    803      1     30     34   1.0000000    
    804      1     30     35   1.0000000    
    805      1     30     36   1.0000000    
    806      1     30     37   1.0000000    
    807      1     30     38   1.0000000    
    808      1     30     39   1.0000000    
    809      1     30     40   1.0000000    
    810      1     30     41   1.0000000    
    811      1     30     42   1.0000000    
    812      1     30     43   1.0000000    
    813      1     30     44   1.0000000    
    814      1     30     45   1.0000000    
    815      1     30     46   1.0000000    
    816      1     30     47   1.0000000    
    817      1     30     48   1.0000000    
    818      1     30     49   1.0000000    
    819      1     30     50   1.0000000    
    820      1     30     51   1.0000000    
    821      1     31     11   1.0000000    
    822      1     31     12   1.0000000    
    823      1     31     13   1.0000000    
    824      1     31     14   1.0000000    
    825      1     31     15   1.0000000    
    826      1     31     16   1.0000000    
    827      1     31     17   1.0000000    
    828      1     31     18   1.0000000    
    829      1     31     19   1.0000000    
    830      1     31     20   1.0000000    
    831      1     31     21   1.0000000    
    832      1     31     22   1.0000000    
    833      1     31     23   1.0000000    
    834      1     31     24   1.0000000    
    835      1     31     25   1.0000000    
    836      1     31     26   1.0000000    
    837      1     31     27   1.0000000    
    838      1     31     28   1.0000000    
    839      1     31     29   1.0000000    
    840      1     31     30   1.0000000    
    841      1     31     31   1.0000000    
    842      1     31     32   1.0000000    
    843      1     31     33   1.0000000    
    844      1     31     34   1.0000000    
    845      1     31     35   1.0000000    
    846      1     31     36   1.0000000    
    847      1     31     37   1.0000000    
    848      1     31     38   1.0000000    
    849      1     31     39   1.0000000    
    850      1     31     40   1.0000000    
    851      1     31     41   1.0000000    
    852      1     31     42   1.0000000    
    853      1     31     43   1.0000000    
    854      1     31     44   1.0000000    
    855      1     31     45   1.0000000    
    856      1     31     46   1.0000000    
    857      1     31     47   1.0000000    
    858      1     31     48   1.0000000    
    859      1     31     49   1.0000000    
    860      1     31     50   1.0000000    
    861      1     31     51   1.0000000    
    862      1     32     11   1.0000000    
    863      1     32     12   1.0000000    
    864      1     32     13   1.0000000    
    865      1     32     14   1.0000000    
    866      1     32     15   1.0000000    
    867      1     32     16   1.0000000    
    868      1     32     17   1.0000000    
    869      1     32     18   1.0000000    
    870      1     32     19   1.0000000    
    871      1     32     20   1.0000000    
    872      1     32     21   1.0000000    
    873      1     32     22   1.0000000    
    874      1     32     23   1.0000000    
    875      1     32     24   1.0000000    
    876      1     32     25   1.0000000    
    877      1     32     26   1.0000000    
    878      1     32     27   1.0000000    
    879      1     32     28   1.0000000    
    880      1     32     29   1.0000000    
    881      1     32     30   1.0000000    
    882      1     32     31   1.0000000    
    883      1     32     32   1.0000000    
    884      1     32     33   1.0000000    
    885      1     32     34   1.0000000    
    886      1     32     35   1.0000000    
    887      1     32     36   1.0000000    
    888      1     32     37   1.0000000    
    889      1     32     38   1.0000000    
    890      1     32     39   1.0000000    
    891      1     32     40   1.0000000    
    892      1     32     41   1.0000000    
    893      1     32     42   1.0000000    
    894      1     32     43   1.0000000    
    895      1     32     44   1.0000000    
    896      1     32     45   1.0000000    
    897      1     32     46   1.0000000    
    898      1     32     47   1.0000000    
    899      1     32     48   1.0000000    
    900      1     32     49   1.0000000    
    901      1     32     50   1.0000000    
    902      1     32     51   1.0000000    
    903      1     33     11   1.0000000    
    904      1     33     12   1.0000000    
    905      1     33     13   1.0000000    
    906      1     33     14   1.0000000    
    907      1     33     15   1.0000000    
    908      1     33     16   1.0000000    
    909      1     33     17   1.0000000    
    910      1     33     18   1.0000000    
    911      1     33     19   1.0000000    
    912      1     33     20   1.0000000    
    913      1     33     21   1.0000000    
    914      1     33     22   1.0000000    
    915      1     33     23   1.0000000    
    916      1     33     24   1.0000000    
    917      1     33     25   1.0000000    
    918      1     33     26   1.0000000    
    919      1     33     27   1.0000000    
    920      1     33     28   1.0000000    
    921      1     33     29   1.0000000    
    922      1     33     30   1.0000000    
    923      1     33     31   1.0000000    
    924      1     33     32   1.0000000    
    925      1     33     33   1.0000000    
    926      1     33     34   1.0000000    
    927      1     33     35   1.0000000    
    928      1     33     36   1.0000000    
    929      1     33     37   1.0000000    
    930      1     33     38   1.0000000    
    931      1     33     39   1.0000000    
    932      1     33     40   1.0000000    
    933      1     33     41   1.0000000    
    934      1     33     42   1.0000000    
    935      1     33     43   1.0000000    
    936      1     33     44   1.0000000    
    937      1     33     45   1.0000000    
    938      1     33     46   1.0000000    
    939      1     33     47   1.0000000    
    940      1     33     48   1.0000000    
    941      1     33     49   1.0000000    
    942      1     33     50   1.0000000    
    943      1     33     51   1.0000000    
    944      1     34     11   1.0000000    
    945      1     34     12   1.0000000    
    946      1     34     13   1.0000000    
    947      1     34     14   1.0000000    
    948      1     34     15   1.0000000    
    949      1     34     16   1.0000000    
    950      1     34     17   1.0000000    
    951      1     34     18   1.0000000    
    952      1     34     19   1.0000000    
    953      1     34     20   1.0000000    
    954      1     34     21   1.0000000    
    955      1     34     22   1.0000000    
    956      1     34     23   1.0000000    
    957      1     34     24   1.0000000    
    958      1     34     25   1.0000000    
    959      1     34     26   1.0000000    
    960      1     34     27   1.0000000    
    961      1     34     28   1.0000000    
    962      1     34     29   1.0000000    
    963      1     34     30   1.0000000    
    964      1     34     31   1.0000000    
    965      1     34     32   1.0000000    
    966      1     34     33   1.0000000    
    967      1     34     34   1.0000000    
    968      1     34     35   1.0000000    
    969      1     34     36   1.0000000    
    970      1     34     37   1.0000000    
    971      1     34     38   1.0000000    
    972      1     34     39   1.0000000    
    973      1     34     40   1.0000000    
    974      1     34     41   1.0000000    
    975      1     34     42   1.0000000    
    976      1     34     43   1.0000000    
    977      1     34     44   1.0000000    
    978      1     34     45   1.0000000    
    979      1     34     46   1.0000000    
    980      1     34     47   1.0000000    
    981      1     34     48   1.0000000    
    982      1     34     49   1.0000000    
    983      1     34     50   1.0000000    
    984      1     34     51   1.0000000    
    985      1     35     11   1.0000000    
    986      1     35     12   1.0000000    
    987      1     35     13   1.0000000    
    988      1     35     14   1.0000000    
    989      1     35     15   1.0000000    
    990      1     35     16   1.0000000    
    991      1     35     17   1.0000000    
    992      1     35     18   1.0000000    
    993      1     35     19   1.0000000    
    994      1     35     20   1.0000000    
    995      1     35     21   1.0000000    
    996      1     35     22   1.0000000    
    997      1     35     23   1.0000000    
    998      1     35     24   1.0000000    
    999      1     35     25   1.0000000    
   1000      1     35     26   1.0000000    
   1001      1     35     27   1.0000000    
   1002      1     35     28   1.0000000    
   1003      1     35     29   1.0000000    
   1004      1     35     30   1.0000000    
   1005      1     35     31   1.0000000    
   1006      1     35     32   1.0000000    
   1007      1     35     33   1.0000000    
   1008      1     35     34   1.0000000    
   1009      1     35     35   1.0000000    
   1010      1     35     36   1.0000000    
   1011      1     35     37   1.0000000    
   1012      1     35     38   1.0000000    
   1013      1     35     39   1.0000000    
   1014      1     35     40   1.0000000    
   1015      1     35     41   1.0000000    
   1016      1     35     42   1.0000000    
   1017      1     35     43   1.0000000    
   1018      1     35     44   1.0000000    
   1019      1     35     45   1.0000000    
   1020      1     35     46   1.0000000    
   1021      1     35     47   1.0000000    
   1022      1     35     48   1.0000000    
   1023      1     35     49   1.0000000    
   1024      1     35     50   1.0000000    
   1025      1     35     51   1.0000000    
   1026      1     36     11   1.0000000    
   1027      1     36     12   1.0000000    
   1028      1     36     13   1.0000000    
   1029      1     36     14   1.0000000    
   1030      1     36     15   1.0000000    
   1031      1     36     16   1.0000000    
   1032      1     36     17   1.0000000    
   1033      1     36     18   1.0000000    
   1034      1     36     19   1.0000000    
   1035      1     36     20   1.0000000    
   1036      1     36     21   1.0000000    
   1037      1     36     22   1.0000000    
   1038      1     36     23   1.0000000    
   1039      1     36     24   1.0000000    
   1040      1     36     25   1.0000000    
   1041      1     36     26   1.0000000    
   1042      1     36     27   1.0000000    
   1043      1     36     28   1.0000000    
   1044      1     36     29   1.0000000    
   1045      1     36     30   1.0000000    
   1046      1     36     31   1.0000000    
   1047      1     36     32   1.0000000    
   1048      1     36     33   1.0000000    
   1049      1     36     34   1.0000000    
   1050      1     36     35   1.0000000    
   1051      1     36     36   1.0000000    
   1052      1     36     37   1.0000000    
   1053      1     36     38   1.0000000    
   1054      1     36     39   1.0000000    
   1055      1     36     40   1.0000000    
   1056      1     36     41   1.0000000    
   1057      1     36     42   1.0000000    
   1058      1     36     43   1.0000000    
   1059      1     36     44   1.0000000    
   1060      1     36     45   1.0000000    
   1061      1     36     46   1.0000000    
   1062      1     36     47   1.0000000    
   1063      1     36     48   1.0000000    
   1064      1     36     49   1.0000000    
   1065      1     36     50   1.0000000    
   1066      1     36     51   1.0000000    
   1067      1     37     11   1.0000000    
   1068      1     37     12   1.0000000    
   1069      1     37     13   1.0000000    
   1070      1     37     14   1.0000000    
   1071      1     37     15   1.0000000    
   1072      1     37     16   1.0000000    
   1073      1     37     17   1.0000000    
   1074      1     37     18   1.0000000    
   1075      1     37     19   1.0000000    
   1076      1     37     20   1.0000000    
   1077      1     37     21   1.0000000    
   1078      1     37     22   1.0000000    
   1079      1     37     23   1.0000000    
   1080      1     37     24   1.0000000    
   1081      1     37     25   1.0000000    
   1082      1     37     26   1.0000000    
   1083      1     37     27   1.0000000    
   1084      1     37     28   1.0000000    
   1085      1     37     29   1.0000000    
   1086      1     37     30   1.0000000    
   1087      1     37     31   1.0000000    
   1088      1     37     32   1.0000000    
   1089      1     37     33   1.0000000    
   1090      1     37     34   1.0000000    
   1091      1     37     35   1.0000000    
   1092      1     37     36   1.0000000    
   1093      1     37     37   1.0000000    
   1094      1     37     38   1.0000000    
   1095      1     37     39   1.0000000    
   1096      1     37     40   1.0000000    
   1097      1     37     41   1.0000000    
   1098      1     37     42   1.0000000    
   1099      1     37     43   1.0000000    
   1100      1     37     44   1.0000000    
   1101      1     37     45   1.0000000    
   1102      1     37     46   1.0000000    
   1103      1     37     47   1.0000000    
   1104      1     37     48   1.0000000    
   1105      1     37     49   1.0000000    
   1106      1     37     50   1.0000000    
   1107      1     37     51   1.0000000    
   1108      1     38     11   1.0000000    
   1109      1     38     12   1.0000000    
   1110      1     38     13   1.0000000    
   1111      1     38     14   1.0000000    
   1112      1     38     15   1.0000000    
   1113      1     38     16   1.0000000    
   1114      1     38     17   1.0000000    
   1115      1     38     18   1.0000000    
   1116      1     38     19   1.0000000    
   1117      1     38     20   1.0000000    
   1118      1     38     21   1.0000000    
   1119      1     38     22   1.0000000    
   1120      1     38     23   1.0000000    
   1121      1     38     24   1.0000000    
   1122      1     38     25   1.0000000    
   1123      1     38     26   1.0000000    
   1124      1     38     27   1.0000000    
   1125      1     38     28   1.0000000    
   1126      1     38     29   1.0000000    
   1127      1     38     30   1.0000000    
   1128      1     38     31   1.0000000    
   1129      1     38     32   1.0000000    
   1130      1     38     33   1.0000000    
   1131      1     38     34   1.0000000    
   1132      1     38     35   1.0000000    
   1133      1     38     36   1.0000000    
   1134      1     38     37   1.0000000    
   1135      1     38     38   1.0000000    
   1136      1     38     39   1.0000000    
   1137      1     38     40   1.0000000    
   1138      1     38     41   1.0000000    
   1139      1     38     42   1.0000000    
   1140      1     38     43   1.0000000    
   1141      1     38     44   1.0000000    
   1142      1     38     45   1.0000000    
   1143      1     38     46   1.0000000    
   1144      1     38     47   1.0000000    
   1145      1     38     48   1.0000000    
   1146      1     38     49   1.0000000    
   1147      1     38     50   1.0000000    
   1148      1     38     51   1.0000000    
   1149      1     39     11   1.0000000    
   1150      1     39     12   1.0000000    
   1151      1     39     13   1.0000000    
   1152      1     39     14   1.0000000    
   1153      1     39     15   1.0000000    
   1154      1     39     16   1.0000000    
   1155      1     39     17   1.0000000    
   1156      1     39     18   1.0000000    
   1157      1     39     19   1.0000000    
   1158      1     39     20   1.0000000    
   1159      1     39     21   1.0000000    
   1160      1     39     22   1.0000000    
   1161      1     39     23   1.0000000    
   1162      1     39     24   1.0000000    
   1163      1     39     25   1.0000000    
   1164      1     39     26   1.0000000    
   1165      1     39     27   1.0000000    
   1166      1     39     28   1.0000000    
   1167      1     39     29   1.0000000    
   1168      1     39     30   1.0000000    
   1169      1     39     31   1.0000000    
   1170      1     39     32   1.0000000    
   1171      1     39     33   1.0000000    
   1172      1     39     34   1.0000000    
   1173      1     39     35   1.0000000    
   1174      1     39     36   1.0000000    
   1175      1     39     37   1.0000000    
   1176      1     39     38   1.0000000    
   1177      1     39     39   1.0000000    
   1178      1     39     40   1.0000000    
   1179      1     39     41   1.0000000    
   1180      1     39     42   1.0000000    
   1181      1     39     43   1.0000000    
   1182      1     39     44   1.0000000    
   1183      1     39     45   1.0000000    
   1184      1     39     46   1.0000000    
   1185      1     39     47   1.0000000    
   1186      1     39     48   1.0000000    
   1187      1     39     49   1.0000000    
   1188      1     39     50   1.0000000    
   1189      1     39     51   1.0000000    
   1190      1     40     11   1.0000000    
   1191      1     40     12   1.0000000    
   1192      1     40     13   1.0000000    
   1193      1     40     14   1.0000000    
   1194      1     40     15   1.0000000    
   1195      1     40     16   1.0000000    
   1196      1     40     17   1.0000000    
   1197      1     40     18   1.0000000    
   1198      1     40     19   1.0000000    
   1199      1     40     20   1.0000000    
   1200      1     40     21   1.0000000    
   1201      1     40     22   1.0000000    
   1202      1     40     23   1.0000000    
   1203      1     40     24   1.0000000    
   1204      1     40     25   1.0000000    
   1205      1     40     26   1.0000000    
   1206      1     40     27   1.0000000    
   1207      1     40     28   1.0000000    
   1208      1     40     29   1.0000000    
   1209      1     40     30   1.0000000    
   1210      1     40     31   1.0000000    
   1211      1     40     32   1.0000000    
   1212      1     40     33   1.0000000    
   1213      1     40     34   1.0000000    
   1214      1     40     35   1.0000000    
   1215      1     40     36   1.0000000    
   1216      1     40     37   1.0000000    
   1217      1     40     38   1.0000000    
   1218      1     40     39   1.0000000    
   1219      1     40     40   1.0000000    
   1220      1     40     41   1.0000000    
   1221      1     40     42   1.0000000    
   1222      1     40     43   1.0000000    
   1223      1     40     44   1.0000000    
   1224      1     40     45   1.0000000    
   1225      1     40     46   1.0000000    
   1226      1     40     47   1.0000000    
   1227      1     40     48   1.0000000    
   1228      1     40     49   1.0000000    
   1229      1     40     50   1.0000000    
   1230      1     40     51   1.0000000    
   1231      1     41     11   1.0000000    
   1232      1     41     12   1.0000000    
   1233      1     41     13   1.0000000    
   1234      1     41     14   1.0000000    
   1235      1     41     15   1.0000000    
   1236      1     41     16   1.0000000    
   1237      1     41     17   1.0000000    
   1238      1     41     18   1.0000000    
   1239      1     41     19   1.0000000    
   1240      1     41     20   1.0000000    
   1241      1     41     21   1.0000000    
   1242      1     41     22   1.0000000    
   1243      1     41     23   1.0000000    
   1244      1     41     24   1.0000000    
   1245      1     41     25   1.0000000    
   1246      1     41     26   1.0000000    
   1247      1     41     27   1.0000000    
   1248      1     41     28   1.0000000    
   1249      1     41     29   1.0000000    
   1250      1     41     30   1.0000000    
   1251      1     41     31   1.0000000    
   1252      1     41     32   1.0000000    
   1253      1     41     33   1.0000000    
   1254      1     41     34   1.0000000    
   1255      1     41     35   1.0000000    
   1256      1     41     36   1.0000000    
   1257      1     41     37   1.0000000    
   1258      1     41     38   1.0000000    
   1259      1     41     39   1.0000000    
   1260      1     41     40   1.0000000    
   1261      1     41     41   1.0000000    
   1262      1     41     42   1.0000000    
   1263      1     41     43   1.0000000    
   1264      1     41     44   1.0000000    
   1265      1     41     45   1.0000000    
   1266      1     41     46   1.0000000    
   1267      1     41     47   1.0000000    
   1268      1     41     48   1.0000000    
   1269      1     41     49   1.0000000    
   1270      1     41     50   1.0000000    
   1271      1     41     51   1.0000000    
   1272      1     42     11   1.0000000    
   1273      1     42     12   1.0000000    
   1274      1     42     13   1.0000000    
   1275      1     42     14   1.0000000    
   1276      1     42     15   1.0000000    
   1277      1     42     16   1.0000000    
   1278      1     42     17   1.0000000    
   1279      1     42     18   1.0000000    
   1280      1     42     19   1.0000000    
   1281      1     42     20   1.0000000    
   1282      1     42     21   1.0000000    
   1283      1     42     22   1.0000000    
   1284      1     42     23   1.0000000    
   1285      1     42     24   1.0000000    
   1286      1     42     25   1.0000000    
   1287      1     42     26   1.0000000    
   1288      1     42     27   1.0000000    
   1289      1     42     28   1.0000000    
   1290      1     42     29   1.0000000    
   1291      1     42     30   1.0000000    
   1292      1     42     31   1.0000000    
   1293      1     42     32   1.0000000    
   1294      1     42     33   1.0000000    
   1295      1     42     34   1.0000000    
   1296      1     42     35   1.0000000    
   1297      1     42     36   1.0000000    
   1298      1     42     37   1.0000000    
   1299      1     42     38   1.0000000    
   1300      1     42     39   1.0000000    
   1301      1     42     40   1.0000000    
   1302      1     42     41   1.0000000    
   1303      1     42     42   1.0000000    
   1304      1     42     43   1.0000000    
   1305      1     42     44   1.0000000    
   1306      1     42     45   1.0000000    
   1307      1     42     46   1.0000000    
   1308      1     42     47   1.0000000    
   1309      1     42     48   1.0000000    
   1310      1     42     49   1.0000000    
   1311      1     42     50   1.0000000    
   1312      1     42     51   1.0000000    
   1313      1     43     11   1.0000000    
   1314      1     43     12   1.0000000    
   1315      1     43     13   1.0000000    
   1316      1     43     14   1.0000000    
   1317      1     43     15   1.0000000    
   1318      1     43     16   1.0000000    
   1319      1     43     17   1.0000000    
   1320      1     43     18   1.0000000    
   1321      1     43     19   1.0000000    
   1322      1     43     20   1.0000000    
   1323      1     43     21   1.0000000    
   1324      1     43     22   1.0000000    
   1325      1     43     23   1.0000000    
   1326      1     43     24   1.0000000    
   1327      1     43     25   1.0000000    
   1328      1     43     26   1.0000000    
   1329      1     43     27   1.0000000    
   1330      1     43     28   1.0000000    
   1331      1     43     29   1.0000000    
   1332      1     43     30   1.0000000    
   1333      1     43     31   1.0000000    
   1334      1     43     32   1.0000000    
   1335      1     43     33   1.0000000    
   1336      1     43     34   1.0000000    
   1337      1     43     35   1.0000000    
   1338      1     43     36   1.0000000    
   1339      1     43     37   1.0000000    
   1340      1     43     38   1.0000000    
   1341      1     43     39   1.0000000    
   1342      1     43     40   1.0000000    
   1343      1     43     41   1.0000000    
   1344      1     43     42   1.0000000    
   1345      1     43     43   1.0000000    
   1346      1     43     44   1.0000000    
   1347      1     43     45   1.0000000    
   1348      1     43     46   1.0000000    
   1349      1     43     47   1.0000000    
   1350      1     43     48   1.0000000    
   1351      1     43     49   1.0000000    
[...]
          0                 1           3            31   51     1           3.130370E-03      11   11    1             8.809852E-01          1.163499E+01    1
          0                 2           2            44   14     2           6.790147E-05      16   12    2             7.013160E-03          1.098515E-01    2
          0                 3           2            19   16     1           4.083185E-05      48   33    1             2.976083E-03          5.460542E-02    3
          0                 4           2            20   18     2           3.509610E-05      46   18    2             1.746196E-03          4.014448E-02    4
          0                 5           2            23   21     2           2.631525E-05      48   37    1             1.542302E-03          3.374291E-02    5
          0                 6           2            27   22     1           2.860517E-05      46   26    2             1.156221E-03          2.970909E-02    6
          0                 7           2            30   26     2           2.166257E-05      48   33    1             1.212263E-03          2.644367E-02    7
          0                 8           2            30   28     2           2.804341E-05      30   26    2             1.020655E-03          2.378273E-02    8
          0                 9           2            31   29     2           1.827598E-05      48   33    1             1.019546E-03          2.134466E-02    9
          0                10           2            31   29     2           2.605613E-05      31   29    2             9.027896E-04          1.924769E-02    10
                                                   Max.-Head-Change                         Max.-Flux-Residual
  Residual-Control     NWT-Iter.   Inner-Iter.     Column Row Layer    Maximum-Head-Change  Column Row Layer    Maximum-Flux-Residual          L2-NORM   Outer-Iter.
          0                11           2            30   30     2           1.460555E-05      48   33    1             8.669861E-04          1.727524E-02    11
          0                12           2            30   30     2           2.300323E-05      31   29    2             7.566398E-04          1.555425E-02    12
          0                13           2            30   30     2           1.147499E-05      48   33    1             7.318543E-04          1.393431E-02    13
          0                14           2            31   31     2           1.970493E-05      31   29    2             6.183704E-04          1.251327E-02    14
          0                15           2            30   31     1           8.976335E-06      48   33    1             6.095373E-04          1.118561E-02    15

 OUTPUT CONTROL FOR STRESS PERIOD      1   TIME STEP    10
    PRINT BUDGET
    SAVE HEAD FOR ALL LAYERS
 SOLVING FOR ZETA FOR LAYER     1 ZONE     2

     921 UPPER PART EQS.       924 LOWER PART EQS.    BAND WIDTH + 1 =     44
 STRESS PERIOD=   1 TIMESTEP=   10 LAYER=   1 ZONE=   2 ACTIVE CELLS= 1845 NUMBER OF EQUATIONS=    1845
 UBUDSV SAVING "      ZETASRF  1" ON UNIT 55 AT TIME STEP 10, STRESS PERIOD 1


                      VOLUMETRIC SWI ZONE BUDGET FOR ENTIRE MODEL
                     AT END OF TIME STEP   10 IN STRESS PERIOD   1
                                      ZONE     1
  -----------------------------------------------------------------------------------

        CUMULATIVE VOLUMES      L**3       RATES FOR THIS TIME STEP      L**3/T
        ------------------                 ------------------------

              IN:                                      IN:
              ---                                      ---
             BOUNDARIES =     1227130.0000            BOUNDARIES =        1681.0000
          CONSTANT HEAD =           0.0000         CONSTANT HEAD =           0.0000
            ZONE CHANGE =        5364.3355           ZONE CHANGE =          14.0411
       ZONE CHG TIP/TOE =        5125.0000      ZONE CHG TIP/TOE =           0.0000
            ZONE MIXING =           0.0000           ZONE MIXING =           0.0000

               TOTAL IN =     1237619.3355              TOTAL IN =        1695.0411

             OUT:                                     OUT:
             ----                                     ----
             BOUNDARIES =      195119.8507            BOUNDARIES =         535.3704
          CONSTANT HEAD =           0.0000         CONSTANT HEAD =           0.0000
            ZONE CHANGE =     1124945.1155           ZONE CHANGE =        1379.1761
       ZONE CHG TIP/TOE =        5125.0000      ZONE CHG TIP/TOE =           0.0000
            ZONE MIXING =           0.0000           ZONE MIXING =           0.0000

              TOTAL OUT =     1325189.9662             TOTAL OUT =        1914.5465

               IN - OUT =      -87570.6306              IN - OUT =        -219.5054

    PERCENT DISCREPANCY =          -6.83     PERCENT DISCREPANCY =         -12.16



                      VOLUMETRIC SWI ZONE BUDGET FOR ENTIRE MODEL
                     AT END OF TIME STEP   10 IN STRESS PERIOD   1
                                      ZONE     2
  -----------------------------------------------------------------------------------

        CUMULATIVE VOLUMES      L**3       RATES FOR THIS TIME STEP      L**3/T
        ------------------                 ------------------------

              IN:                                      IN:
              ---                                      ---
             BOUNDARIES =           0.0000            BOUNDARIES =           0.0000
          CONSTANT HEAD =           0.0000         CONSTANT HEAD =           0.0000
            ZONE CHANGE =     1124945.1155           ZONE CHANGE =        1379.1761
       ZONE CHG TIP/TOE =       92813.5169      ZONE CHG TIP/TOE =         219.6797
            ZONE MIXING =           0.0000           ZONE MIXING =           0.0000

               TOTAL IN =     1217758.6324              TOTAL IN =        1598.8559

             OUT:                                     OUT:
             ----                                     ----
             BOUNDARIES =     1031742.3361            BOUNDARIES =        1145.2396
          CONSTANT HEAD =           0.0000         CONSTANT HEAD =           0.0000
            ZONE CHANGE =       93052.8525           ZONE CHANGE =         233.7208
       ZONE CHG TIP/TOE =        5125.0000      ZONE CHG TIP/TOE =           0.0000
            ZONE MIXING =           0.0000           ZONE MIXING =           0.0000

              TOTAL OUT =     1129920.1886             TOTAL OUT =        1378.9604

               IN - OUT =       87838.4438              IN - OUT =         219.8955

    PERCENT DISCREPANCY =           7.48     PERCENT DISCREPANCY =          14.77


    ------------------------------------------------
       NWT REQUIRED           15 NEWTON ITERATIONS 
       AND A TOTAL OF         15 OUTER  ITERATIONS 
       AND A TOTAL OF         16 INNER  ITERATIONS.
    ------------------------------------------------

 HEAD WILL BE SAVED ON UNIT   51 AT END OF TIME STEP    10 IN STRESS PERIOD      1



  -------------------------------------------------------------------------------------
  VOLUMETRIC BUDGET FOR ENTIRE MODEL AT END OF TIME STEP   10 IN STRESS PERIOD      1
  -------------------------------------------------------------------------------------

     CUMULATIVE VOLUMES      L**3       RATES FOR THIS TIME STEP      L**3/T
     ------------------                 ------------------------

           IN:                                      IN:
           ---                                      ---
             STORAGE =           0.0000               STORAGE =           0.0000
       CONSTANT HEAD =           0.0000         CONSTANT HEAD =           0.0000
               WELLS =     1227130.0000                 WELLS =        1681.0000
     HEAD DEP BOUNDS =           0.0000       HEAD DEP BOUNDS =           0.0000
          SWIADDTOCH =           0.0000            SWIADDTOCH =           0.0000

            TOTAL IN =     1227130.0000              TOTAL IN =        1681.0000

          OUT:                                     OUT:
          ----                                     ----
             STORAGE =           0.0000               STORAGE =           0.0000
       CONSTANT HEAD =           0.0000         CONSTANT HEAD =           0.0000
               WELLS =           0.0000                 WELLS =           0.0000
     HEAD DEP BOUNDS =     1226862.1868       HEAD DEP BOUNDS =        1680.6099
          SWIADDTOCH =           0.0000            SWIADDTOCH =           0.0000

           TOTAL OUT =     1226862.1868             TOTAL OUT =        1680.6099

            IN - OUT =         267.8132              IN - OUT =           0.3901

 PERCENT DISCREPANCY =           0.02     PERCENT DISCREPANCY =           0.02


          TIME SUMMARY AT END OF TIME STEP    10 IN STRESS PERIOD      1
                    SECONDS     MINUTES      HOURS       DAYS        YEARS
                    -----------------------------------------------------------
   TIME STEP LENGTH 6.30720E+06 1.05120E+05  1752.0      73.000     0.19986    
 STRESS PERIOD TIME 6.30720E+07 1.05120E+06  17520.      730.00      1.9986    
         TOTAL TIME 6.30720E+07 1.05120E+06  17520.      730.00      1.9986    
 

 HEAD WILL BE SAVED ON UNIT   51 AT END OF TIME STEP   178 IN STRESS PERIOD      3
 
 SOLVING FOR HEAD 
                                                   Max.-Head-Change                         Max.-Flux-Residual
  Residual-Control     NWT-Iter.   Inner-Iter.     Column Row Layer    Maximum-Head-Change  Column Row Layer    Maximum-Flux-Residual          L2-NORM   Outer-Iter.
          0                 1           2            36   31     2          -7.342840E-04      36   31    2            -5.090840E-01          9.253872E-01    1
          0                 2           2            34   32     2          -1.994006E-05      19   18    1            -4.295567E-03          2.769190E-02    2
          0                 3           2            37   31     2          -1.791901E-05      37   31    2            -1.134413E-03          9.083558E-03    3
          0                 4           2            34   32     2          -9.394697E-06      39   29    2            -5.908525E-04          6.290276E-03    4

 OUTPUT CONTROL FOR STRESS PERIOD      3   TIME STEP   179
    SAVE HEAD FOR ALL LAYERS
 SOLVING FOR ZETA FOR LAYER     1 ZONE     2

     729 UPPER PART EQS.       737 LOWER PART EQS.    BAND WIDTH + 1 =     29
 STRESS PERIOD=   3 TIMESTEP=  179 LAYER=   1 ZONE=   2 ACTIVE CELLS= 1466 NUMBER OF EQUATIONS=    1466
 SOLVING FOR ZETA FOR LAYER     2 ZONE     2

     635 UPPER PART EQS.       636 LOWER PART EQS.    BAND WIDTH + 1 =     31
 STRESS PERIOD=   3 TIMESTEP=  179 LAYER=   2 ZONE=   2 ACTIVE CELLS= 1271 NUMBER OF EQUATIONS=    1271
 UBUDSV SAVING "      ZETASRF  1" ON UNIT 55 AT TIME STEP 179, STRESS PERIOD 3

    ------------------------------------------------
       NWT REQUIRED            4 NEWTON ITERATIONS 
       AND A TOTAL OF          4 OUTER  ITERATIONS 
       AND A TOTAL OF          4 INNER  ITERATIONS.
    ------------------------------------------------

 HEAD WILL BE SAVED ON UNIT   51 AT END OF TIME STEP   179 IN STRESS PERIOD      3
 
 SOLVING FOR HEAD 
                                                   Max.-Head-Change                         Max.-Flux-Residual
  Residual-Control     NWT-Iter.   Inner-Iter.     Column Row Layer    Maximum-Head-Change  Column Row Layer    Maximum-Flux-Residual          L2-NORM   Outer-Iter.
          0                 1           2            36   31     2          -7.479761E-04      36   31    2            -5.199505E-01          9.877185E-01    1
          0                 2           2            34   32     2          -2.146296E-05      20   15    1             4.519251E-03          2.984060E-02    2
          0                 3           2            37   31     2          -2.047223E-05      37   31    2            -1.233411E-03          1.164316E-02    3
          0                 4           2            34   32     2          -1.079206E-05      39   29    2            -7.405462E-04          7.956357E-03    4
          0                 5           2            37   31     2          -1.155593E-05      37   31    2            -6.246348E-04          6.521933E-03    5
          0                 6           2            34   32     2          -7.591670E-06      39   29    2            -4.670900E-04          5.634168E-03    6

 OUTPUT CONTROL FOR STRESS PERIOD      3   TIME STEP   180
    PRINT BUDGET
    SAVE HEAD FOR ALL LAYERS
 SOLVING FOR ZETA FOR LAYER     1 ZONE     2

     728 UPPER PART EQS.       741 LOWER PART EQS.    BAND WIDTH + 1 =     35
 STRESS PERIOD=   3 TIMESTEP=  180 LAYER=   1 ZONE=   2 ACTIVE CELLS= 1469 NUMBER OF EQUATIONS=    1469
 SOLVING FOR ZETA FOR LAYER     2 ZONE     2

     635 UPPER PART EQS.       636 LOWER PART EQS.    BAND WIDTH + 1 =     31
 STRESS PERIOD=   3 TIMESTEP=  180 LAYER=   2 ZONE=   2 ACTIVE CELLS= 1271 NUMBER OF EQUATIONS=    1271
 UBUDSV SAVING "      ZETASRF  1" ON UNIT 55 AT TIME STEP 180, STRESS PERIOD 3


                      VOLUMETRIC SWI ZONE BUDGET FOR ENTIRE MODEL
                     AT END OF TIME STEP  180 IN STRESS PERIOD   3
                                      ZONE     1
  -----------------------------------------------------------------------------------

        CUMULATIVE VOLUMES      L**3       RATES FOR THIS TIME STEP      L**3/T
        ------------------                 ------------------------

              IN:                                      IN:
              ---                                      ---
             BOUNDARIES =   141109000.0000            BOUNDARIES =        1680.0000
          CONSTANT HEAD =           0.0000         CONSTANT HEAD =           0.0000
            ZONE CHANGE =     1613577.1942           ZONE CHANGE =          73.2280
       ZONE CHG TIP/TOE =      439864.9275      ZONE CHG TIP/TOE =           3.1500
            ZONE MIXING =           0.0000           ZONE MIXING =           0.0000

               TOTAL IN =   143162442.1218              TOTAL IN =        1756.3780

             OUT:                                     OUT:
             ----                                     ----
             BOUNDARIES =   124506180.7682            BOUNDARIES =        1749.9864
          CONSTANT HEAD =           0.0000         CONSTANT HEAD =           0.0000
            ZONE CHANGE =    18937574.6456           ZONE CHANGE =           3.3941
       ZONE CHG TIP/TOE =      452765.3400      ZONE CHG TIP/TOE =           3.1500
            ZONE MIXING =           0.0000           ZONE MIXING =           0.0000

              TOTAL OUT =   143896520.7538             TOTAL OUT =        1756.5304

               IN - OUT =     -734078.6320              IN - OUT =          -0.1525

    PERCENT DISCREPANCY =          -0.51     PERCENT DISCREPANCY =          -0.01



                      VOLUMETRIC SWI ZONE BUDGET FOR ENTIRE MODEL
                     AT END OF TIME STEP  180 IN STRESS PERIOD   3
                                      ZONE     2
  -----------------------------------------------------------------------------------

        CUMULATIVE VOLUMES      L**3       RATES FOR THIS TIME STEP      L**3/T
        ------------------                 ------------------------

              IN:                                      IN:
              ---                                      ---
             BOUNDARIES =     1223244.6820            BOUNDARIES =          94.8239
          CONSTANT HEAD =           0.0000         CONSTANT HEAD =           0.0000
            ZONE CHANGE =    18893943.1157           ZONE CHANGE =           3.3808
       ZONE CHG TIP/TOE =     1191087.1418      ZONE CHG TIP/TOE =           3.1500
            ZONE MIXING =           0.0000           ZONE MIXING =           0.0000

               TOTAL IN =    21308274.9395              TOTAL IN =         101.3547

             OUT:                                     OUT:
             ----                                     ----
             BOUNDARIES =    17817886.8860            BOUNDARIES =          25.0000
          CONSTANT HEAD =           0.0000         CONSTANT HEAD =           0.0000
            ZONE CHANGE =     2351898.9961           ZONE CHANGE =          73.2280
       ZONE CHG TIP/TOE =      396233.3976      ZONE CHG TIP/TOE =           3.1367
            ZONE MIXING =           0.0000           ZONE MIXING =           0.0000

              TOTAL OUT =    20566019.2796             TOTAL OUT =         101.3647

               IN - OUT =      742255.6598              IN - OUT =      -9.9992E-03

    PERCENT DISCREPANCY =           3.55     PERCENT DISCREPANCY =          -0.01


    ------------------------------------------------
       NWT REQUIRED            6 NEWTON ITERATIONS 
       AND A TOTAL OF          6 OUTER  ITERATIONS 
       AND A TOTAL OF          6 INNER  ITERATIONS.
    ------------------------------------------------

 HEAD WILL BE SAVED ON UNIT   51 AT END OF TIME STEP   180 IN STRESS PERIOD      3



  -------------------------------------------------------------------------------------
  VOLUMETRIC BUDGET FOR ENTIRE MODEL AT END OF TIME STEP  180 IN STRESS PERIOD      3
  -------------------------------------------------------------------------------------

     CUMULATIVE VOLUMES      L**3       RATES FOR THIS TIME STEP      L**3/T
     ------------------                 ------------------------

           IN:                                      IN:
           ---                                      ---
             STORAGE =           0.0000               STORAGE =           0.0000
       CONSTANT HEAD =           0.0000         CONSTANT HEAD =           0.0000
               WELLS =   141119950.0000                 WELLS =        1681.0000
     HEAD DEP BOUNDS =     1223244.6820       HEAD DEP BOUNDS =          94.8239
          SWIADDTOCH =           0.0000            SWIADDTOCH =           0.0000

            TOTAL IN =   142343194.6820              TOTAL IN =        1775.8239

          OUT:                                     OUT:
          ----                                     ----
             STORAGE =           0.0000               STORAGE =           0.0000
       CONSTANT HEAD =           0.0000         CONSTANT HEAD =           0.0000
               WELLS =     2901750.0000                 WELLS =         275.0000
     HEAD DEP BOUNDS =   139433267.6542       HEAD DEP BOUNDS =        1500.9864
          SWIADDTOCH =           0.0000            SWIADDTOCH =           0.0000

           TOTAL OUT =   142335017.6542             TOTAL OUT =        1775.9864

            IN - OUT =        8177.0278              IN - OUT =          -0.1625

 PERCENT DISCREPANCY =           0.01     PERCENT DISCREPANCY =          -0.01


          TIME SUMMARY AT END OF TIME STEP   180 IN STRESS PERIOD      3
                    SECONDS     MINUTES      HOURS       DAYS        YEARS
                    -----------------------------------------------------------
   TIME STEP LENGTH 3.15360E+06  52560.      876.00      36.500     9.99316E-02
 STRESS PERIOD TIME 5.67648E+08 9.46080E+06 1.57680E+05  6570.0      17.988    
         TOTAL TIME 7.25328E+09 1.20888E+08 2.01480E+06  83950.      229.84    
 

 Final Remark:

   The solver successfully met the user supplied convergence criteria, HCLOSE and RCLOSE, for all 1300 time steps.

   Please check the "VOLUMETRIC BUDGET FOR ENTIRE MODEL" to ensure that mass rate balance errors are acceptable for all time steps.

   The cumulative mass error for the entire simulation is 0.01 %




 Simulation finished at  


 Which had an elapsed run time of: 0 minutes, 0 seconds


    OneWater Simulation Now Complete


